* BEGIN ANSOFT HEADER
* node 1    trace_p_0_T1
* node 2    trace_n_0_T1
* node 3    trace_p_1_T1
* node 4    trace_n_1_T1
* node 5    trace_p_2_T1
* node 6    trace_n_2_T1
* node 7    trace_p_3_T1
* node 8    trace_n_3_T1
* node 9    trace_p_4_T1
* node 10   trace_n_4_T1
* node 11   trace_p_5_T1
* node 12   trace_n_5_T1
* node 13   trace_p_6_T1
* node 14   trace_n_6_T1
* node 15   trace_p_7_T1
* node 16   trace_n_7_T1
* node 17   trace_p_0_T2
* node 18   trace_n_0_T2
* node 19   trace_p_1_T2
* node 20   trace_n_1_T2
* node 21   trace_p_2_T2
* node 22   trace_n_2_T2
* node 23   trace_p_3_T2
* node 24   trace_n_3_T2
* node 25   trace_p_4_T2
* node 26   trace_n_4_T2
* node 27   trace_p_5_T2
* node 28   trace_n_5_T2
* node 29   trace_p_6_T2
* node 30   trace_n_6_T2
* node 31   trace_p_7_T2
* node 32   trace_n_7_T2
*   Format: HSPICE
*   Topckt: m16lines_port_fws
*     Date: Sat Jun 06 11:16:33 2020
*    Notes: Frequency range: 1e+08 to 7e+10 Hz, 700 points
*         : Maximum number of poles: 10000
*         : S-Matrix fitting error tolerance: 0.001
*         : Causality check tolerance: auto
*         : Passivity enforcement: on (by iterated fitting)
*         : Causality enforcement: off
*         : Fitting method: FastFit
*         : Matrix fitting: By entire matrix (required by FastFit)
*         : Ensure Z-parameter accuracy: on
*         : Relative error control: off
*         : Common ground option: on
*         : Final fitting error: 0.0148652
*         : Final model order: 256
* END ANSOFT HEADER

.subckt m16lines_port_fws 1 2 3 4 5 6 7 8 9 10 11 12 13 14 15 16 17 18 19 20 21
+ 22 23 24 25 26 27 28 29 30 31 32
Vam1 1 n2 dc 0
Rport1 n2 0 50 noise=0
Vam2 2 n4 dc 0
Rport2 n4 0 50 noise=0
Vam3 3 n6 dc 0
Rport3 n6 0 50 noise=0
Vam4 4 n8 dc 0
Rport4 n8 0 50 noise=0
Vam5 5 n10 dc 0
Rport5 n10 0 50 noise=0
Vam6 6 n12 dc 0
Rport6 n12 0 50 noise=0
Vam7 7 n14 dc 0
Rport7 n14 0 50 noise=0
Vam8 8 n16 dc 0
Rport8 n16 0 50 noise=0
Vam9 9 n18 dc 0
Rport9 n18 0 50 noise=0
Vam10 10 n20 dc 0
Rport10 n20 0 50 noise=0
Vam11 11 n22 dc 0
Rport11 n22 0 50 noise=0
Vam12 12 n24 dc 0
Rport12 n24 0 50 noise=0
Vam13 13 n26 dc 0
Rport13 n26 0 50 noise=0
Vam14 14 n28 dc 0
Rport14 n28 0 50 noise=0
Vam15 15 n30 dc 0
Rport15 n30 0 50 noise=0
Vam16 16 n32 dc 0
Rport16 n32 0 50 noise=0
Vam17 17 n34 dc 0
Rport17 n34 0 50 noise=0
Vam18 18 n36 dc 0
Rport18 n36 0 50 noise=0
Vam19 19 n38 dc 0
Rport19 n38 0 50 noise=0
Vam20 20 n40 dc 0
Rport20 n40 0 50 noise=0
Vam21 21 n42 dc 0
Rport21 n42 0 50 noise=0
Vam22 22 n44 dc 0
Rport22 n44 0 50 noise=0
Vam23 23 n46 dc 0
Rport23 n46 0 50 noise=0
Vam24 24 n48 dc 0
Rport24 n48 0 50 noise=0
Vam25 25 n50 dc 0
Rport25 n50 0 50 noise=0
Vam26 26 n52 dc 0
Rport26 n52 0 50 noise=0
Vam27 27 n54 dc 0
Rport27 n54 0 50 noise=0
Vam28 28 n56 dc 0
Rport28 n56 0 50 noise=0
Vam29 29 n58 dc 0
Rport29 n58 0 50 noise=0
Vam30 30 n60 dc 0
Rport30 n60 0 50 noise=0
Vam31 31 n62 dc 0
Rport31 n62 0 50 noise=0
Vam32 32 n64 dc 0
Rport32 n64 0 50 noise=0

Fi1 0 ni1 Vam1 50
Gi1 0 ni1 1 0 1
Rt1 ni1 0 1 noise=0
Fi2 0 ni2 Vam2 50
Gi2 0 ni2 2 0 1
Rt2 ni2 0 1 noise=0
Fi3 0 ni3 Vam3 50
Gi3 0 ni3 3 0 1
Rt3 ni3 0 1 noise=0
Fi4 0 ni4 Vam4 50
Gi4 0 ni4 4 0 1
Rt4 ni4 0 1 noise=0
Fi5 0 ni5 Vam5 50
Gi5 0 ni5 5 0 1
Rt5 ni5 0 1 noise=0
Fi6 0 ni6 Vam6 50
Gi6 0 ni6 6 0 1
Rt6 ni6 0 1 noise=0
Fi7 0 ni7 Vam7 50
Gi7 0 ni7 7 0 1
Rt7 ni7 0 1 noise=0
Fi8 0 ni8 Vam8 50
Gi8 0 ni8 8 0 1
Rt8 ni8 0 1 noise=0
Fi9 0 ni9 Vam9 50
Gi9 0 ni9 9 0 1
Rt9 ni9 0 1 noise=0
Fi10 0 ni10 Vam10 50
Gi10 0 ni10 10 0 1
Rt10 ni10 0 1 noise=0
Fi11 0 ni11 Vam11 50
Gi11 0 ni11 11 0 1
Rt11 ni11 0 1 noise=0
Fi12 0 ni12 Vam12 50
Gi12 0 ni12 12 0 1
Rt12 ni12 0 1 noise=0
Fi13 0 ni13 Vam13 50
Gi13 0 ni13 13 0 1
Rt13 ni13 0 1 noise=0
Fi14 0 ni14 Vam14 50
Gi14 0 ni14 14 0 1
Rt14 ni14 0 1 noise=0
Fi15 0 ni15 Vam15 50
Gi15 0 ni15 15 0 1
Rt15 ni15 0 1 noise=0
Fi16 0 ni16 Vam16 50
Gi16 0 ni16 16 0 1
Rt16 ni16 0 1 noise=0
Fi17 0 ni17 Vam17 50
Gi17 0 ni17 17 0 1
Rt17 ni17 0 1 noise=0
Fi18 0 ni18 Vam18 50
Gi18 0 ni18 18 0 1
Rt18 ni18 0 1 noise=0
Fi19 0 ni19 Vam19 50
Gi19 0 ni19 19 0 1
Rt19 ni19 0 1 noise=0
Fi20 0 ni20 Vam20 50
Gi20 0 ni20 20 0 1
Rt20 ni20 0 1 noise=0
Fi21 0 ni21 Vam21 50
Gi21 0 ni21 21 0 1
Rt21 ni21 0 1 noise=0
Fi22 0 ni22 Vam22 50
Gi22 0 ni22 22 0 1
Rt22 ni22 0 1 noise=0
Fi23 0 ni23 Vam23 50
Gi23 0 ni23 23 0 1
Rt23 ni23 0 1 noise=0
Fi24 0 ni24 Vam24 50
Gi24 0 ni24 24 0 1
Rt24 ni24 0 1 noise=0
Fi25 0 ni25 Vam25 50
Gi25 0 ni25 25 0 1
Rt25 ni25 0 1 noise=0
Fi26 0 ni26 Vam26 50
Gi26 0 ni26 26 0 1
Rt26 ni26 0 1 noise=0
Fi27 0 ni27 Vam27 50
Gi27 0 ni27 27 0 1
Rt27 ni27 0 1 noise=0
Fi28 0 ni28 Vam28 50
Gi28 0 ni28 28 0 1
Rt28 ni28 0 1 noise=0
Fi29 0 ni29 Vam29 50
Gi29 0 ni29 29 0 1
Rt29 ni29 0 1 noise=0
Fi30 0 ni30 Vam30 50
Gi30 0 ni30 30 0 1
Rt30 ni30 0 1 noise=0
Fi31 0 ni31 Vam31 50
Gi31 0 ni31 31 0 1
Rt31 ni31 0 1 noise=0
Fi32 0 ni32 Vam32 50
Gi32 0 ni32 32 0 1
Rt32 ni32 0 1 noise=0

Ca1 ns1 0 1e-12
Ra1 ns1 0 0.246835352493 noise=0
Ca2 ns2 0 1e-12
Ca3 ns3 0 1e-12
Ra2 ns2 0 5.85392236353 noise=0
Ra3 ns3 0 5.85392236353 noise=0
Ga2 ns2 0 ns3 0 -1.24965224039
Ga3 ns3 0 ns2 0 1.24965224039
Ca4 ns4 0 1e-12
Ca5 ns5 0 1e-12
Ra4 ns4 0 3.75353660859 noise=0
Ra5 ns5 0 3.75353660859 noise=0
Ga4 ns4 0 ns5 0 -0.431489095244
Ga5 ns5 0 ns4 0 0.431489095244
Ca6 ns6 0 1e-12
Ra6 ns6 0 12.1731904857 noise=0
Ca7 ns7 0 1e-12
Ra7 ns7 0 531.342615159 noise=0
Ca8 ns8 0 1e-12
Ra8 ns8 0 4008.18525934 noise=0
Ca9 ns9 0 1e-12
Ra9 ns9 0 0.246835352493 noise=0
Ca10 ns10 0 1e-12
Ca11 ns11 0 1e-12
Ra10 ns10 0 5.85392236353 noise=0
Ra11 ns11 0 5.85392236353 noise=0
Ga10 ns10 0 ns11 0 -1.24965224039
Ga11 ns11 0 ns10 0 1.24965224039
Ca12 ns12 0 1e-12
Ca13 ns13 0 1e-12
Ra12 ns12 0 3.75353660859 noise=0
Ra13 ns13 0 3.75353660859 noise=0
Ga12 ns12 0 ns13 0 -0.431489095244
Ga13 ns13 0 ns12 0 0.431489095244
Ca14 ns14 0 1e-12
Ra14 ns14 0 12.1731904857 noise=0
Ca15 ns15 0 1e-12
Ra15 ns15 0 531.342615159 noise=0
Ca16 ns16 0 1e-12
Ra16 ns16 0 4008.18525934 noise=0
Ca17 ns17 0 1e-12
Ra17 ns17 0 0.246835352493 noise=0
Ca18 ns18 0 1e-12
Ca19 ns19 0 1e-12
Ra18 ns18 0 5.85392236353 noise=0
Ra19 ns19 0 5.85392236353 noise=0
Ga18 ns18 0 ns19 0 -1.24965224039
Ga19 ns19 0 ns18 0 1.24965224039
Ca20 ns20 0 1e-12
Ca21 ns21 0 1e-12
Ra20 ns20 0 3.75353660859 noise=0
Ra21 ns21 0 3.75353660859 noise=0
Ga20 ns20 0 ns21 0 -0.431489095244
Ga21 ns21 0 ns20 0 0.431489095244
Ca22 ns22 0 1e-12
Ra22 ns22 0 12.1731904857 noise=0
Ca23 ns23 0 1e-12
Ra23 ns23 0 531.342615159 noise=0
Ca24 ns24 0 1e-12
Ra24 ns24 0 4008.18525934 noise=0
Ca25 ns25 0 1e-12
Ra25 ns25 0 0.246835352493 noise=0
Ca26 ns26 0 1e-12
Ca27 ns27 0 1e-12
Ra26 ns26 0 5.85392236353 noise=0
Ra27 ns27 0 5.85392236353 noise=0
Ga26 ns26 0 ns27 0 -1.24965224039
Ga27 ns27 0 ns26 0 1.24965224039
Ca28 ns28 0 1e-12
Ca29 ns29 0 1e-12
Ra28 ns28 0 3.75353660859 noise=0
Ra29 ns29 0 3.75353660859 noise=0
Ga28 ns28 0 ns29 0 -0.431489095244
Ga29 ns29 0 ns28 0 0.431489095244
Ca30 ns30 0 1e-12
Ra30 ns30 0 12.1731904857 noise=0
Ca31 ns31 0 1e-12
Ra31 ns31 0 531.342615159 noise=0
Ca32 ns32 0 1e-12
Ra32 ns32 0 4008.18525934 noise=0
Ca33 ns33 0 1e-12
Ra33 ns33 0 0.246835352493 noise=0
Ca34 ns34 0 1e-12
Ca35 ns35 0 1e-12
Ra34 ns34 0 5.85392236353 noise=0
Ra35 ns35 0 5.85392236353 noise=0
Ga34 ns34 0 ns35 0 -1.24965224039
Ga35 ns35 0 ns34 0 1.24965224039
Ca36 ns36 0 1e-12
Ca37 ns37 0 1e-12
Ra36 ns36 0 3.75353660859 noise=0
Ra37 ns37 0 3.75353660859 noise=0
Ga36 ns36 0 ns37 0 -0.431489095244
Ga37 ns37 0 ns36 0 0.431489095244
Ca38 ns38 0 1e-12
Ra38 ns38 0 12.1731904857 noise=0
Ca39 ns39 0 1e-12
Ra39 ns39 0 531.342615159 noise=0
Ca40 ns40 0 1e-12
Ra40 ns40 0 4008.18525934 noise=0
Ca41 ns41 0 1e-12
Ra41 ns41 0 0.246835352493 noise=0
Ca42 ns42 0 1e-12
Ca43 ns43 0 1e-12
Ra42 ns42 0 5.85392236353 noise=0
Ra43 ns43 0 5.85392236353 noise=0
Ga42 ns42 0 ns43 0 -1.24965224039
Ga43 ns43 0 ns42 0 1.24965224039
Ca44 ns44 0 1e-12
Ca45 ns45 0 1e-12
Ra44 ns44 0 3.75353660859 noise=0
Ra45 ns45 0 3.75353660859 noise=0
Ga44 ns44 0 ns45 0 -0.431489095244
Ga45 ns45 0 ns44 0 0.431489095244
Ca46 ns46 0 1e-12
Ra46 ns46 0 12.1731904857 noise=0
Ca47 ns47 0 1e-12
Ra47 ns47 0 531.342615159 noise=0
Ca48 ns48 0 1e-12
Ra48 ns48 0 4008.18525934 noise=0
Ca49 ns49 0 1e-12
Ra49 ns49 0 0.246835352493 noise=0
Ca50 ns50 0 1e-12
Ca51 ns51 0 1e-12
Ra50 ns50 0 5.85392236353 noise=0
Ra51 ns51 0 5.85392236353 noise=0
Ga50 ns50 0 ns51 0 -1.24965224039
Ga51 ns51 0 ns50 0 1.24965224039
Ca52 ns52 0 1e-12
Ca53 ns53 0 1e-12
Ra52 ns52 0 3.75353660859 noise=0
Ra53 ns53 0 3.75353660859 noise=0
Ga52 ns52 0 ns53 0 -0.431489095244
Ga53 ns53 0 ns52 0 0.431489095244
Ca54 ns54 0 1e-12
Ra54 ns54 0 12.1731904857 noise=0
Ca55 ns55 0 1e-12
Ra55 ns55 0 531.342615159 noise=0
Ca56 ns56 0 1e-12
Ra56 ns56 0 4008.18525934 noise=0
Ca57 ns57 0 1e-12
Ra57 ns57 0 0.246835352493 noise=0
Ca58 ns58 0 1e-12
Ca59 ns59 0 1e-12
Ra58 ns58 0 5.85392236353 noise=0
Ra59 ns59 0 5.85392236353 noise=0
Ga58 ns58 0 ns59 0 -1.24965224039
Ga59 ns59 0 ns58 0 1.24965224039
Ca60 ns60 0 1e-12
Ca61 ns61 0 1e-12
Ra60 ns60 0 3.75353660859 noise=0
Ra61 ns61 0 3.75353660859 noise=0
Ga60 ns60 0 ns61 0 -0.431489095244
Ga61 ns61 0 ns60 0 0.431489095244
Ca62 ns62 0 1e-12
Ra62 ns62 0 12.1731904857 noise=0
Ca63 ns63 0 1e-12
Ra63 ns63 0 531.342615159 noise=0
Ca64 ns64 0 1e-12
Ra64 ns64 0 4008.18525934 noise=0
Ca65 ns65 0 1e-12
Ra65 ns65 0 0.246835352493 noise=0
Ca66 ns66 0 1e-12
Ca67 ns67 0 1e-12
Ra66 ns66 0 5.85392236353 noise=0
Ra67 ns67 0 5.85392236353 noise=0
Ga66 ns66 0 ns67 0 -1.24965224039
Ga67 ns67 0 ns66 0 1.24965224039
Ca68 ns68 0 1e-12
Ca69 ns69 0 1e-12
Ra68 ns68 0 3.75353660859 noise=0
Ra69 ns69 0 3.75353660859 noise=0
Ga68 ns68 0 ns69 0 -0.431489095244
Ga69 ns69 0 ns68 0 0.431489095244
Ca70 ns70 0 1e-12
Ra70 ns70 0 12.1731904857 noise=0
Ca71 ns71 0 1e-12
Ra71 ns71 0 531.342615159 noise=0
Ca72 ns72 0 1e-12
Ra72 ns72 0 4008.18525934 noise=0
Ca73 ns73 0 1e-12
Ra73 ns73 0 0.246835352493 noise=0
Ca74 ns74 0 1e-12
Ca75 ns75 0 1e-12
Ra74 ns74 0 5.85392236353 noise=0
Ra75 ns75 0 5.85392236353 noise=0
Ga74 ns74 0 ns75 0 -1.24965224039
Ga75 ns75 0 ns74 0 1.24965224039
Ca76 ns76 0 1e-12
Ca77 ns77 0 1e-12
Ra76 ns76 0 3.75353660859 noise=0
Ra77 ns77 0 3.75353660859 noise=0
Ga76 ns76 0 ns77 0 -0.431489095244
Ga77 ns77 0 ns76 0 0.431489095244
Ca78 ns78 0 1e-12
Ra78 ns78 0 12.1731904857 noise=0
Ca79 ns79 0 1e-12
Ra79 ns79 0 531.342615159 noise=0
Ca80 ns80 0 1e-12
Ra80 ns80 0 4008.18525934 noise=0
Ca81 ns81 0 1e-12
Ra81 ns81 0 0.246835352493 noise=0
Ca82 ns82 0 1e-12
Ca83 ns83 0 1e-12
Ra82 ns82 0 5.85392236353 noise=0
Ra83 ns83 0 5.85392236353 noise=0
Ga82 ns82 0 ns83 0 -1.24965224039
Ga83 ns83 0 ns82 0 1.24965224039
Ca84 ns84 0 1e-12
Ca85 ns85 0 1e-12
Ra84 ns84 0 3.75353660859 noise=0
Ra85 ns85 0 3.75353660859 noise=0
Ga84 ns84 0 ns85 0 -0.431489095244
Ga85 ns85 0 ns84 0 0.431489095244
Ca86 ns86 0 1e-12
Ra86 ns86 0 12.1731904857 noise=0
Ca87 ns87 0 1e-12
Ra87 ns87 0 531.342615159 noise=0
Ca88 ns88 0 1e-12
Ra88 ns88 0 4008.18525934 noise=0
Ca89 ns89 0 1e-12
Ra89 ns89 0 0.246835352493 noise=0
Ca90 ns90 0 1e-12
Ca91 ns91 0 1e-12
Ra90 ns90 0 5.85392236353 noise=0
Ra91 ns91 0 5.85392236353 noise=0
Ga90 ns90 0 ns91 0 -1.24965224039
Ga91 ns91 0 ns90 0 1.24965224039
Ca92 ns92 0 1e-12
Ca93 ns93 0 1e-12
Ra92 ns92 0 3.75353660859 noise=0
Ra93 ns93 0 3.75353660859 noise=0
Ga92 ns92 0 ns93 0 -0.431489095244
Ga93 ns93 0 ns92 0 0.431489095244
Ca94 ns94 0 1e-12
Ra94 ns94 0 12.1731904857 noise=0
Ca95 ns95 0 1e-12
Ra95 ns95 0 531.342615159 noise=0
Ca96 ns96 0 1e-12
Ra96 ns96 0 4008.18525934 noise=0
Ca97 ns97 0 1e-12
Ra97 ns97 0 0.246835352493 noise=0
Ca98 ns98 0 1e-12
Ca99 ns99 0 1e-12
Ra98 ns98 0 5.85392236353 noise=0
Ra99 ns99 0 5.85392236353 noise=0
Ga98 ns98 0 ns99 0 -1.24965224039
Ga99 ns99 0 ns98 0 1.24965224039
Ca100 ns100 0 1e-12
Ca101 ns101 0 1e-12
Ra100 ns100 0 3.75353660859 noise=0
Ra101 ns101 0 3.75353660859 noise=0
Ga100 ns100 0 ns101 0 -0.431489095244
Ga101 ns101 0 ns100 0 0.431489095244
Ca102 ns102 0 1e-12
Ra102 ns102 0 12.1731904857 noise=0
Ca103 ns103 0 1e-12
Ra103 ns103 0 531.342615159 noise=0
Ca104 ns104 0 1e-12
Ra104 ns104 0 4008.18525934 noise=0
Ca105 ns105 0 1e-12
Ra105 ns105 0 0.246835352493 noise=0
Ca106 ns106 0 1e-12
Ca107 ns107 0 1e-12
Ra106 ns106 0 5.85392236353 noise=0
Ra107 ns107 0 5.85392236353 noise=0
Ga106 ns106 0 ns107 0 -1.24965224039
Ga107 ns107 0 ns106 0 1.24965224039
Ca108 ns108 0 1e-12
Ca109 ns109 0 1e-12
Ra108 ns108 0 3.75353660859 noise=0
Ra109 ns109 0 3.75353660859 noise=0
Ga108 ns108 0 ns109 0 -0.431489095244
Ga109 ns109 0 ns108 0 0.431489095244
Ca110 ns110 0 1e-12
Ra110 ns110 0 12.1731904857 noise=0
Ca111 ns111 0 1e-12
Ra111 ns111 0 531.342615159 noise=0
Ca112 ns112 0 1e-12
Ra112 ns112 0 4008.18525934 noise=0
Ca113 ns113 0 1e-12
Ra113 ns113 0 0.246835352493 noise=0
Ca114 ns114 0 1e-12
Ca115 ns115 0 1e-12
Ra114 ns114 0 5.85392236353 noise=0
Ra115 ns115 0 5.85392236353 noise=0
Ga114 ns114 0 ns115 0 -1.24965224039
Ga115 ns115 0 ns114 0 1.24965224039
Ca116 ns116 0 1e-12
Ca117 ns117 0 1e-12
Ra116 ns116 0 3.75353660859 noise=0
Ra117 ns117 0 3.75353660859 noise=0
Ga116 ns116 0 ns117 0 -0.431489095244
Ga117 ns117 0 ns116 0 0.431489095244
Ca118 ns118 0 1e-12
Ra118 ns118 0 12.1731904857 noise=0
Ca119 ns119 0 1e-12
Ra119 ns119 0 531.342615159 noise=0
Ca120 ns120 0 1e-12
Ra120 ns120 0 4008.18525934 noise=0
Ca121 ns121 0 1e-12
Ra121 ns121 0 0.246835352493 noise=0
Ca122 ns122 0 1e-12
Ca123 ns123 0 1e-12
Ra122 ns122 0 5.85392236353 noise=0
Ra123 ns123 0 5.85392236353 noise=0
Ga122 ns122 0 ns123 0 -1.24965224039
Ga123 ns123 0 ns122 0 1.24965224039
Ca124 ns124 0 1e-12
Ca125 ns125 0 1e-12
Ra124 ns124 0 3.75353660859 noise=0
Ra125 ns125 0 3.75353660859 noise=0
Ga124 ns124 0 ns125 0 -0.431489095244
Ga125 ns125 0 ns124 0 0.431489095244
Ca126 ns126 0 1e-12
Ra126 ns126 0 12.1731904857 noise=0
Ca127 ns127 0 1e-12
Ra127 ns127 0 531.342615159 noise=0
Ca128 ns128 0 1e-12
Ra128 ns128 0 4008.18525934 noise=0
Ca129 ns129 0 1e-12
Ra129 ns129 0 0.246835352493 noise=0
Ca130 ns130 0 1e-12
Ca131 ns131 0 1e-12
Ra130 ns130 0 5.85392236353 noise=0
Ra131 ns131 0 5.85392236353 noise=0
Ga130 ns130 0 ns131 0 -1.24965224039
Ga131 ns131 0 ns130 0 1.24965224039
Ca132 ns132 0 1e-12
Ca133 ns133 0 1e-12
Ra132 ns132 0 3.75353660859 noise=0
Ra133 ns133 0 3.75353660859 noise=0
Ga132 ns132 0 ns133 0 -0.431489095244
Ga133 ns133 0 ns132 0 0.431489095244
Ca134 ns134 0 1e-12
Ra134 ns134 0 12.1731904857 noise=0
Ca135 ns135 0 1e-12
Ra135 ns135 0 531.342615159 noise=0
Ca136 ns136 0 1e-12
Ra136 ns136 0 4008.18525934 noise=0
Ca137 ns137 0 1e-12
Ra137 ns137 0 0.246835352493 noise=0
Ca138 ns138 0 1e-12
Ca139 ns139 0 1e-12
Ra138 ns138 0 5.85392236353 noise=0
Ra139 ns139 0 5.85392236353 noise=0
Ga138 ns138 0 ns139 0 -1.24965224039
Ga139 ns139 0 ns138 0 1.24965224039
Ca140 ns140 0 1e-12
Ca141 ns141 0 1e-12
Ra140 ns140 0 3.75353660859 noise=0
Ra141 ns141 0 3.75353660859 noise=0
Ga140 ns140 0 ns141 0 -0.431489095244
Ga141 ns141 0 ns140 0 0.431489095244
Ca142 ns142 0 1e-12
Ra142 ns142 0 12.1731904857 noise=0
Ca143 ns143 0 1e-12
Ra143 ns143 0 531.342615159 noise=0
Ca144 ns144 0 1e-12
Ra144 ns144 0 4008.18525934 noise=0
Ca145 ns145 0 1e-12
Ra145 ns145 0 0.246835352493 noise=0
Ca146 ns146 0 1e-12
Ca147 ns147 0 1e-12
Ra146 ns146 0 5.85392236353 noise=0
Ra147 ns147 0 5.85392236353 noise=0
Ga146 ns146 0 ns147 0 -1.24965224039
Ga147 ns147 0 ns146 0 1.24965224039
Ca148 ns148 0 1e-12
Ca149 ns149 0 1e-12
Ra148 ns148 0 3.75353660859 noise=0
Ra149 ns149 0 3.75353660859 noise=0
Ga148 ns148 0 ns149 0 -0.431489095244
Ga149 ns149 0 ns148 0 0.431489095244
Ca150 ns150 0 1e-12
Ra150 ns150 0 12.1731904857 noise=0
Ca151 ns151 0 1e-12
Ra151 ns151 0 531.342615159 noise=0
Ca152 ns152 0 1e-12
Ra152 ns152 0 4008.18525934 noise=0
Ca153 ns153 0 1e-12
Ra153 ns153 0 0.246835352493 noise=0
Ca154 ns154 0 1e-12
Ca155 ns155 0 1e-12
Ra154 ns154 0 5.85392236353 noise=0
Ra155 ns155 0 5.85392236353 noise=0
Ga154 ns154 0 ns155 0 -1.24965224039
Ga155 ns155 0 ns154 0 1.24965224039
Ca156 ns156 0 1e-12
Ca157 ns157 0 1e-12
Ra156 ns156 0 3.75353660859 noise=0
Ra157 ns157 0 3.75353660859 noise=0
Ga156 ns156 0 ns157 0 -0.431489095244
Ga157 ns157 0 ns156 0 0.431489095244
Ca158 ns158 0 1e-12
Ra158 ns158 0 12.1731904857 noise=0
Ca159 ns159 0 1e-12
Ra159 ns159 0 531.342615159 noise=0
Ca160 ns160 0 1e-12
Ra160 ns160 0 4008.18525934 noise=0
Ca161 ns161 0 1e-12
Ra161 ns161 0 0.246835352493 noise=0
Ca162 ns162 0 1e-12
Ca163 ns163 0 1e-12
Ra162 ns162 0 5.85392236353 noise=0
Ra163 ns163 0 5.85392236353 noise=0
Ga162 ns162 0 ns163 0 -1.24965224039
Ga163 ns163 0 ns162 0 1.24965224039
Ca164 ns164 0 1e-12
Ca165 ns165 0 1e-12
Ra164 ns164 0 3.75353660859 noise=0
Ra165 ns165 0 3.75353660859 noise=0
Ga164 ns164 0 ns165 0 -0.431489095244
Ga165 ns165 0 ns164 0 0.431489095244
Ca166 ns166 0 1e-12
Ra166 ns166 0 12.1731904857 noise=0
Ca167 ns167 0 1e-12
Ra167 ns167 0 531.342615159 noise=0
Ca168 ns168 0 1e-12
Ra168 ns168 0 4008.18525934 noise=0
Ca169 ns169 0 1e-12
Ra169 ns169 0 0.246835352493 noise=0
Ca170 ns170 0 1e-12
Ca171 ns171 0 1e-12
Ra170 ns170 0 5.85392236353 noise=0
Ra171 ns171 0 5.85392236353 noise=0
Ga170 ns170 0 ns171 0 -1.24965224039
Ga171 ns171 0 ns170 0 1.24965224039
Ca172 ns172 0 1e-12
Ca173 ns173 0 1e-12
Ra172 ns172 0 3.75353660859 noise=0
Ra173 ns173 0 3.75353660859 noise=0
Ga172 ns172 0 ns173 0 -0.431489095244
Ga173 ns173 0 ns172 0 0.431489095244
Ca174 ns174 0 1e-12
Ra174 ns174 0 12.1731904857 noise=0
Ca175 ns175 0 1e-12
Ra175 ns175 0 531.342615159 noise=0
Ca176 ns176 0 1e-12
Ra176 ns176 0 4008.18525934 noise=0
Ca177 ns177 0 1e-12
Ra177 ns177 0 0.246835352493 noise=0
Ca178 ns178 0 1e-12
Ca179 ns179 0 1e-12
Ra178 ns178 0 5.85392236353 noise=0
Ra179 ns179 0 5.85392236353 noise=0
Ga178 ns178 0 ns179 0 -1.24965224039
Ga179 ns179 0 ns178 0 1.24965224039
Ca180 ns180 0 1e-12
Ca181 ns181 0 1e-12
Ra180 ns180 0 3.75353660859 noise=0
Ra181 ns181 0 3.75353660859 noise=0
Ga180 ns180 0 ns181 0 -0.431489095244
Ga181 ns181 0 ns180 0 0.431489095244
Ca182 ns182 0 1e-12
Ra182 ns182 0 12.1731904857 noise=0
Ca183 ns183 0 1e-12
Ra183 ns183 0 531.342615159 noise=0
Ca184 ns184 0 1e-12
Ra184 ns184 0 4008.18525934 noise=0
Ca185 ns185 0 1e-12
Ra185 ns185 0 0.246835352493 noise=0
Ca186 ns186 0 1e-12
Ca187 ns187 0 1e-12
Ra186 ns186 0 5.85392236353 noise=0
Ra187 ns187 0 5.85392236353 noise=0
Ga186 ns186 0 ns187 0 -1.24965224039
Ga187 ns187 0 ns186 0 1.24965224039
Ca188 ns188 0 1e-12
Ca189 ns189 0 1e-12
Ra188 ns188 0 3.75353660859 noise=0
Ra189 ns189 0 3.75353660859 noise=0
Ga188 ns188 0 ns189 0 -0.431489095244
Ga189 ns189 0 ns188 0 0.431489095244
Ca190 ns190 0 1e-12
Ra190 ns190 0 12.1731904857 noise=0
Ca191 ns191 0 1e-12
Ra191 ns191 0 531.342615159 noise=0
Ca192 ns192 0 1e-12
Ra192 ns192 0 4008.18525934 noise=0
Ca193 ns193 0 1e-12
Ra193 ns193 0 0.246835352493 noise=0
Ca194 ns194 0 1e-12
Ca195 ns195 0 1e-12
Ra194 ns194 0 5.85392236353 noise=0
Ra195 ns195 0 5.85392236353 noise=0
Ga194 ns194 0 ns195 0 -1.24965224039
Ga195 ns195 0 ns194 0 1.24965224039
Ca196 ns196 0 1e-12
Ca197 ns197 0 1e-12
Ra196 ns196 0 3.75353660859 noise=0
Ra197 ns197 0 3.75353660859 noise=0
Ga196 ns196 0 ns197 0 -0.431489095244
Ga197 ns197 0 ns196 0 0.431489095244
Ca198 ns198 0 1e-12
Ra198 ns198 0 12.1731904857 noise=0
Ca199 ns199 0 1e-12
Ra199 ns199 0 531.342615159 noise=0
Ca200 ns200 0 1e-12
Ra200 ns200 0 4008.18525934 noise=0
Ca201 ns201 0 1e-12
Ra201 ns201 0 0.246835352493 noise=0
Ca202 ns202 0 1e-12
Ca203 ns203 0 1e-12
Ra202 ns202 0 5.85392236353 noise=0
Ra203 ns203 0 5.85392236353 noise=0
Ga202 ns202 0 ns203 0 -1.24965224039
Ga203 ns203 0 ns202 0 1.24965224039
Ca204 ns204 0 1e-12
Ca205 ns205 0 1e-12
Ra204 ns204 0 3.75353660859 noise=0
Ra205 ns205 0 3.75353660859 noise=0
Ga204 ns204 0 ns205 0 -0.431489095244
Ga205 ns205 0 ns204 0 0.431489095244
Ca206 ns206 0 1e-12
Ra206 ns206 0 12.1731904857 noise=0
Ca207 ns207 0 1e-12
Ra207 ns207 0 531.342615159 noise=0
Ca208 ns208 0 1e-12
Ra208 ns208 0 4008.18525934 noise=0
Ca209 ns209 0 1e-12
Ra209 ns209 0 0.246835352493 noise=0
Ca210 ns210 0 1e-12
Ca211 ns211 0 1e-12
Ra210 ns210 0 5.85392236353 noise=0
Ra211 ns211 0 5.85392236353 noise=0
Ga210 ns210 0 ns211 0 -1.24965224039
Ga211 ns211 0 ns210 0 1.24965224039
Ca212 ns212 0 1e-12
Ca213 ns213 0 1e-12
Ra212 ns212 0 3.75353660859 noise=0
Ra213 ns213 0 3.75353660859 noise=0
Ga212 ns212 0 ns213 0 -0.431489095244
Ga213 ns213 0 ns212 0 0.431489095244
Ca214 ns214 0 1e-12
Ra214 ns214 0 12.1731904857 noise=0
Ca215 ns215 0 1e-12
Ra215 ns215 0 531.342615159 noise=0
Ca216 ns216 0 1e-12
Ra216 ns216 0 4008.18525934 noise=0
Ca217 ns217 0 1e-12
Ra217 ns217 0 0.246835352493 noise=0
Ca218 ns218 0 1e-12
Ca219 ns219 0 1e-12
Ra218 ns218 0 5.85392236353 noise=0
Ra219 ns219 0 5.85392236353 noise=0
Ga218 ns218 0 ns219 0 -1.24965224039
Ga219 ns219 0 ns218 0 1.24965224039
Ca220 ns220 0 1e-12
Ca221 ns221 0 1e-12
Ra220 ns220 0 3.75353660859 noise=0
Ra221 ns221 0 3.75353660859 noise=0
Ga220 ns220 0 ns221 0 -0.431489095244
Ga221 ns221 0 ns220 0 0.431489095244
Ca222 ns222 0 1e-12
Ra222 ns222 0 12.1731904857 noise=0
Ca223 ns223 0 1e-12
Ra223 ns223 0 531.342615159 noise=0
Ca224 ns224 0 1e-12
Ra224 ns224 0 4008.18525934 noise=0
Ca225 ns225 0 1e-12
Ra225 ns225 0 0.246835352493 noise=0
Ca226 ns226 0 1e-12
Ca227 ns227 0 1e-12
Ra226 ns226 0 5.85392236353 noise=0
Ra227 ns227 0 5.85392236353 noise=0
Ga226 ns226 0 ns227 0 -1.24965224039
Ga227 ns227 0 ns226 0 1.24965224039
Ca228 ns228 0 1e-12
Ca229 ns229 0 1e-12
Ra228 ns228 0 3.75353660859 noise=0
Ra229 ns229 0 3.75353660859 noise=0
Ga228 ns228 0 ns229 0 -0.431489095244
Ga229 ns229 0 ns228 0 0.431489095244
Ca230 ns230 0 1e-12
Ra230 ns230 0 12.1731904857 noise=0
Ca231 ns231 0 1e-12
Ra231 ns231 0 531.342615159 noise=0
Ca232 ns232 0 1e-12
Ra232 ns232 0 4008.18525934 noise=0
Ca233 ns233 0 1e-12
Ra233 ns233 0 0.246835352493 noise=0
Ca234 ns234 0 1e-12
Ca235 ns235 0 1e-12
Ra234 ns234 0 5.85392236353 noise=0
Ra235 ns235 0 5.85392236353 noise=0
Ga234 ns234 0 ns235 0 -1.24965224039
Ga235 ns235 0 ns234 0 1.24965224039
Ca236 ns236 0 1e-12
Ca237 ns237 0 1e-12
Ra236 ns236 0 3.75353660859 noise=0
Ra237 ns237 0 3.75353660859 noise=0
Ga236 ns236 0 ns237 0 -0.431489095244
Ga237 ns237 0 ns236 0 0.431489095244
Ca238 ns238 0 1e-12
Ra238 ns238 0 12.1731904857 noise=0
Ca239 ns239 0 1e-12
Ra239 ns239 0 531.342615159 noise=0
Ca240 ns240 0 1e-12
Ra240 ns240 0 4008.18525934 noise=0
Ca241 ns241 0 1e-12
Ra241 ns241 0 0.246835352493 noise=0
Ca242 ns242 0 1e-12
Ca243 ns243 0 1e-12
Ra242 ns242 0 5.85392236353 noise=0
Ra243 ns243 0 5.85392236353 noise=0
Ga242 ns242 0 ns243 0 -1.24965224039
Ga243 ns243 0 ns242 0 1.24965224039
Ca244 ns244 0 1e-12
Ca245 ns245 0 1e-12
Ra244 ns244 0 3.75353660859 noise=0
Ra245 ns245 0 3.75353660859 noise=0
Ga244 ns244 0 ns245 0 -0.431489095244
Ga245 ns245 0 ns244 0 0.431489095244
Ca246 ns246 0 1e-12
Ra246 ns246 0 12.1731904857 noise=0
Ca247 ns247 0 1e-12
Ra247 ns247 0 531.342615159 noise=0
Ca248 ns248 0 1e-12
Ra248 ns248 0 4008.18525934 noise=0
Ca249 ns249 0 1e-12
Ra249 ns249 0 0.246835352493 noise=0
Ca250 ns250 0 1e-12
Ca251 ns251 0 1e-12
Ra250 ns250 0 5.85392236353 noise=0
Ra251 ns251 0 5.85392236353 noise=0
Ga250 ns250 0 ns251 0 -1.24965224039
Ga251 ns251 0 ns250 0 1.24965224039
Ca252 ns252 0 1e-12
Ca253 ns253 0 1e-12
Ra252 ns252 0 3.75353660859 noise=0
Ra253 ns253 0 3.75353660859 noise=0
Ga252 ns252 0 ns253 0 -0.431489095244
Ga253 ns253 0 ns252 0 0.431489095244
Ca254 ns254 0 1e-12
Ra254 ns254 0 12.1731904857 noise=0
Ca255 ns255 0 1e-12
Ra255 ns255 0 531.342615159 noise=0
Ca256 ns256 0 1e-12
Ra256 ns256 0 4008.18525934 noise=0

Gb1_1 ns1 0 ni1 0 -4.05128353739
Gb2_1 ns2 0 ni1 0 1.17655154414
Gb3_1 ns3 0 ni1 0 0.705584069575
Gb4_1 ns4 0 ni1 0 -0.436081647803
Gb5_1 ns5 0 ni1 0 0.258977266879
Gb6_1 ns6 0 ni1 0 -0.0821477328543
Gb7_1 ns7 0 ni1 0 0.00188202483947
Gb8_1 ns8 0 ni1 0 -0.000249489466004
Gb9_2 ns9 0 ni2 0 -4.05128353739
Gb10_2 ns10 0 ni2 0 1.17655154414
Gb11_2 ns11 0 ni2 0 0.705584069575
Gb12_2 ns12 0 ni2 0 -0.436081647803
Gb13_2 ns13 0 ni2 0 0.258977266879
Gb14_2 ns14 0 ni2 0 -0.0821477328543
Gb15_2 ns15 0 ni2 0 0.00188202483947
Gb16_2 ns16 0 ni2 0 -0.000249489466004
Gb17_3 ns17 0 ni3 0 -4.05128353739
Gb18_3 ns18 0 ni3 0 1.17655154414
Gb19_3 ns19 0 ni3 0 0.705584069575
Gb20_3 ns20 0 ni3 0 -0.436081647803
Gb21_3 ns21 0 ni3 0 0.258977266879
Gb22_3 ns22 0 ni3 0 -0.0821477328543
Gb23_3 ns23 0 ni3 0 0.00188202483947
Gb24_3 ns24 0 ni3 0 -0.000249489466004
Gb25_4 ns25 0 ni4 0 -4.05128353739
Gb26_4 ns26 0 ni4 0 1.17655154414
Gb27_4 ns27 0 ni4 0 0.705584069575
Gb28_4 ns28 0 ni4 0 -0.436081647803
Gb29_4 ns29 0 ni4 0 0.258977266879
Gb30_4 ns30 0 ni4 0 -0.0821477328543
Gb31_4 ns31 0 ni4 0 0.00188202483947
Gb32_4 ns32 0 ni4 0 -0.000249489466004
Gb33_5 ns33 0 ni5 0 -4.05128353739
Gb34_5 ns34 0 ni5 0 1.17655154414
Gb35_5 ns35 0 ni5 0 0.705584069575
Gb36_5 ns36 0 ni5 0 -0.436081647803
Gb37_5 ns37 0 ni5 0 0.258977266879
Gb38_5 ns38 0 ni5 0 -0.0821477328543
Gb39_5 ns39 0 ni5 0 0.00188202483947
Gb40_5 ns40 0 ni5 0 -0.000249489466004
Gb41_6 ns41 0 ni6 0 -4.05128353739
Gb42_6 ns42 0 ni6 0 1.17655154414
Gb43_6 ns43 0 ni6 0 0.705584069575
Gb44_6 ns44 0 ni6 0 -0.436081647803
Gb45_6 ns45 0 ni6 0 0.258977266879
Gb46_6 ns46 0 ni6 0 -0.0821477328543
Gb47_6 ns47 0 ni6 0 0.00188202483947
Gb48_6 ns48 0 ni6 0 -0.000249489466004
Gb49_7 ns49 0 ni7 0 -4.05128353739
Gb50_7 ns50 0 ni7 0 1.17655154414
Gb51_7 ns51 0 ni7 0 0.705584069575
Gb52_7 ns52 0 ni7 0 -0.436081647803
Gb53_7 ns53 0 ni7 0 0.258977266879
Gb54_7 ns54 0 ni7 0 -0.0821477328543
Gb55_7 ns55 0 ni7 0 0.00188202483947
Gb56_7 ns56 0 ni7 0 -0.000249489466004
Gb57_8 ns57 0 ni8 0 -4.05128353739
Gb58_8 ns58 0 ni8 0 1.17655154414
Gb59_8 ns59 0 ni8 0 0.705584069575
Gb60_8 ns60 0 ni8 0 -0.436081647803
Gb61_8 ns61 0 ni8 0 0.258977266879
Gb62_8 ns62 0 ni8 0 -0.0821477328543
Gb63_8 ns63 0 ni8 0 0.00188202483947
Gb64_8 ns64 0 ni8 0 -0.000249489466004
Gb65_9 ns65 0 ni9 0 -4.05128353739
Gb66_9 ns66 0 ni9 0 1.17655154414
Gb67_9 ns67 0 ni9 0 0.705584069575
Gb68_9 ns68 0 ni9 0 -0.436081647803
Gb69_9 ns69 0 ni9 0 0.258977266879
Gb70_9 ns70 0 ni9 0 -0.0821477328543
Gb71_9 ns71 0 ni9 0 0.00188202483947
Gb72_9 ns72 0 ni9 0 -0.000249489466004
Gb73_10 ns73 0 ni10 0 -4.05128353739
Gb74_10 ns74 0 ni10 0 1.17655154414
Gb75_10 ns75 0 ni10 0 0.705584069575
Gb76_10 ns76 0 ni10 0 -0.436081647803
Gb77_10 ns77 0 ni10 0 0.258977266879
Gb78_10 ns78 0 ni10 0 -0.0821477328543
Gb79_10 ns79 0 ni10 0 0.00188202483947
Gb80_10 ns80 0 ni10 0 -0.000249489466004
Gb81_11 ns81 0 ni11 0 -4.05128353739
Gb82_11 ns82 0 ni11 0 1.17655154414
Gb83_11 ns83 0 ni11 0 0.705584069575
Gb84_11 ns84 0 ni11 0 -0.436081647803
Gb85_11 ns85 0 ni11 0 0.258977266879
Gb86_11 ns86 0 ni11 0 -0.0821477328543
Gb87_11 ns87 0 ni11 0 0.00188202483947
Gb88_11 ns88 0 ni11 0 -0.000249489466004
Gb89_12 ns89 0 ni12 0 -4.05128353739
Gb90_12 ns90 0 ni12 0 1.17655154414
Gb91_12 ns91 0 ni12 0 0.705584069575
Gb92_12 ns92 0 ni12 0 -0.436081647803
Gb93_12 ns93 0 ni12 0 0.258977266879
Gb94_12 ns94 0 ni12 0 -0.0821477328543
Gb95_12 ns95 0 ni12 0 0.00188202483947
Gb96_12 ns96 0 ni12 0 -0.000249489466004
Gb97_13 ns97 0 ni13 0 -4.05128353739
Gb98_13 ns98 0 ni13 0 1.17655154414
Gb99_13 ns99 0 ni13 0 0.705584069575
Gb100_13 ns100 0 ni13 0 -0.436081647803
Gb101_13 ns101 0 ni13 0 0.258977266879
Gb102_13 ns102 0 ni13 0 -0.0821477328543
Gb103_13 ns103 0 ni13 0 0.00188202483947
Gb104_13 ns104 0 ni13 0 -0.000249489466004
Gb105_14 ns105 0 ni14 0 -4.05128353739
Gb106_14 ns106 0 ni14 0 1.17655154414
Gb107_14 ns107 0 ni14 0 0.705584069575
Gb108_14 ns108 0 ni14 0 -0.436081647803
Gb109_14 ns109 0 ni14 0 0.258977266879
Gb110_14 ns110 0 ni14 0 -0.0821477328543
Gb111_14 ns111 0 ni14 0 0.00188202483947
Gb112_14 ns112 0 ni14 0 -0.000249489466004
Gb113_15 ns113 0 ni15 0 -4.05128353739
Gb114_15 ns114 0 ni15 0 1.17655154414
Gb115_15 ns115 0 ni15 0 0.705584069575
Gb116_15 ns116 0 ni15 0 -0.436081647803
Gb117_15 ns117 0 ni15 0 0.258977266879
Gb118_15 ns118 0 ni15 0 -0.0821477328543
Gb119_15 ns119 0 ni15 0 0.00188202483947
Gb120_15 ns120 0 ni15 0 -0.000249489466004
Gb121_16 ns121 0 ni16 0 -4.05128353739
Gb122_16 ns122 0 ni16 0 1.17655154414
Gb123_16 ns123 0 ni16 0 0.705584069575
Gb124_16 ns124 0 ni16 0 -0.436081647803
Gb125_16 ns125 0 ni16 0 0.258977266879
Gb126_16 ns126 0 ni16 0 -0.0821477328543
Gb127_16 ns127 0 ni16 0 0.00188202483947
Gb128_16 ns128 0 ni16 0 -0.000249489466004
Gb129_17 ns129 0 ni17 0 -4.05128353739
Gb130_17 ns130 0 ni17 0 1.17655154414
Gb131_17 ns131 0 ni17 0 0.705584069575
Gb132_17 ns132 0 ni17 0 -0.436081647803
Gb133_17 ns133 0 ni17 0 0.258977266879
Gb134_17 ns134 0 ni17 0 -0.0821477328543
Gb135_17 ns135 0 ni17 0 0.00188202483947
Gb136_17 ns136 0 ni17 0 -0.000249489466004
Gb137_18 ns137 0 ni18 0 -4.05128353739
Gb138_18 ns138 0 ni18 0 1.17655154414
Gb139_18 ns139 0 ni18 0 0.705584069575
Gb140_18 ns140 0 ni18 0 -0.436081647803
Gb141_18 ns141 0 ni18 0 0.258977266879
Gb142_18 ns142 0 ni18 0 -0.0821477328543
Gb143_18 ns143 0 ni18 0 0.00188202483947
Gb144_18 ns144 0 ni18 0 -0.000249489466004
Gb145_19 ns145 0 ni19 0 -4.05128353739
Gb146_19 ns146 0 ni19 0 1.17655154414
Gb147_19 ns147 0 ni19 0 0.705584069575
Gb148_19 ns148 0 ni19 0 -0.436081647803
Gb149_19 ns149 0 ni19 0 0.258977266879
Gb150_19 ns150 0 ni19 0 -0.0821477328543
Gb151_19 ns151 0 ni19 0 0.00188202483947
Gb152_19 ns152 0 ni19 0 -0.000249489466004
Gb153_20 ns153 0 ni20 0 -4.05128353739
Gb154_20 ns154 0 ni20 0 1.17655154414
Gb155_20 ns155 0 ni20 0 0.705584069575
Gb156_20 ns156 0 ni20 0 -0.436081647803
Gb157_20 ns157 0 ni20 0 0.258977266879
Gb158_20 ns158 0 ni20 0 -0.0821477328543
Gb159_20 ns159 0 ni20 0 0.00188202483947
Gb160_20 ns160 0 ni20 0 -0.000249489466004
Gb161_21 ns161 0 ni21 0 -4.05128353739
Gb162_21 ns162 0 ni21 0 1.17655154414
Gb163_21 ns163 0 ni21 0 0.705584069575
Gb164_21 ns164 0 ni21 0 -0.436081647803
Gb165_21 ns165 0 ni21 0 0.258977266879
Gb166_21 ns166 0 ni21 0 -0.0821477328543
Gb167_21 ns167 0 ni21 0 0.00188202483947
Gb168_21 ns168 0 ni21 0 -0.000249489466004
Gb169_22 ns169 0 ni22 0 -4.05128353739
Gb170_22 ns170 0 ni22 0 1.17655154414
Gb171_22 ns171 0 ni22 0 0.705584069575
Gb172_22 ns172 0 ni22 0 -0.436081647803
Gb173_22 ns173 0 ni22 0 0.258977266879