* BEGIN ANSOFT HEADER
* node 1    trace_p_0_T1
* node 2    trace_n_0_T1
* node 3    trace_p_1_T1
* node 4    trace_n_1_T1
* node 5    trace_p_2_T1
* node 6    trace_n_2_T1
* node 7    trace_p_3_T1
* node 8    trace_n_3_T1
* node 9    trace_p_4_T1
* node 10   trace_n_4_T1
* node 11   trace_p_5_T1
* node 12   trace_n_5_T1
* node 13   trace_p_6_T1
* node 14   trace_n_6_T1
* node 15   trace_p_7_T1
* node 16   trace_n_7_T1
* node 17   trace_p_0_T2
* node 18   trace_n_0_T2
* node 19   trace_p_1_T2
* node 20   trace_n_1_T2
* node 21   trace_p_2_T2
* node 22   trace_n_2_T2
* node 23   trace_p_3_T2
* node 24   trace_n_3_T2
* node 25   trace_p_4_T2
* node 26   trace_n_4_T2
* node 27   trace_p_5_T2
* node 28   trace_n_5_T2
* node 29   trace_p_6_T2
* node 30   trace_n_6_T2
* node 31   trace_p_7_T2
* node 32   trace_n_7_T2
*   Format: HSPICE
*   Topckt: m16lines_HFSS_fws
*     Date: Wed Jun 03 21:07:55 2020
*    Notes: Frequency range: 1e+08 to 7e+10 Hz, 700 points
*         : Maximum number of poles: 10000
*         : S-Matrix fitting error tolerance: 0.001
*         : Causality check tolerance: auto
*         : Passivity enforcement: on (by iterated fitting)
*         : Causality enforcement: off
*         : Fitting method: FastFit
*         : Matrix fitting: By entire matrix (required by FastFit)
*         : Ensure Z-parameter accuracy: on
*         : Relative error control: off
*         : Common ground option: on
*         : Final fitting error: 0.00848944
*         : Final model order: 1216
* END ANSOFT HEADER

.subckt m16lines_HFSS_fws 1 2 3 4 5 6 7 8 9 10 11 12 13 14 15 16 17 18 19 20 21
+ 22 23 24 25 26 27 28 29 30 31 32
Vam1 1 n2 dc 0
Rport1 n2 0 50 noise=0
Vam2 2 n4 dc 0
Rport2 n4 0 50 noise=0
Vam3 3 n6 dc 0
Rport3 n6 0 50 noise=0
Vam4 4 n8 dc 0
Rport4 n8 0 50 noise=0
Vam5 5 n10 dc 0
Rport5 n10 0 50 noise=0
Vam6 6 n12 dc 0
Rport6 n12 0 50 noise=0
Vam7 7 n14 dc 0
Rport7 n14 0 50 noise=0
Vam8 8 n16 dc 0
Rport8 n16 0 50 noise=0
Vam9 9 n18 dc 0
Rport9 n18 0 50 noise=0
Vam10 10 n20 dc 0
Rport10 n20 0 50 noise=0
Vam11 11 n22 dc 0
Rport11 n22 0 50 noise=0
Vam12 12 n24 dc 0
Rport12 n24 0 50 noise=0
Vam13 13 n26 dc 0
Rport13 n26 0 50 noise=0
Vam14 14 n28 dc 0
Rport14 n28 0 50 noise=0
Vam15 15 n30 dc 0
Rport15 n30 0 50 noise=0
Vam16 16 n32 dc 0
Rport16 n32 0 50 noise=0
Vam17 17 n34 dc 0
Rport17 n34 0 50 noise=0
Vam18 18 n36 dc 0
Rport18 n36 0 50 noise=0
Vam19 19 n38 dc 0
Rport19 n38 0 50 noise=0
Vam20 20 n40 dc 0
Rport20 n40 0 50 noise=0
Vam21 21 n42 dc 0
Rport21 n42 0 50 noise=0
Vam22 22 n44 dc 0
Rport22 n44 0 50 noise=0
Vam23 23 n46 dc 0
Rport23 n46 0 50 noise=0
Vam24 24 n48 dc 0
Rport24 n48 0 50 noise=0
Vam25 25 n50 dc 0
Rport25 n50 0 50 noise=0
Vam26 26 n52 dc 0
Rport26 n52 0 50 noise=0
Vam27 27 n54 dc 0
Rport27 n54 0 50 noise=0
Vam28 28 n56 dc 0
Rport28 n56 0 50 noise=0
Vam29 29 n58 dc 0
Rport29 n58 0 50 noise=0
Vam30 30 n60 dc 0
Rport30 n60 0 50 noise=0
Vam31 31 n62 dc 0
Rport31 n62 0 50 noise=0
Vam32 32 n64 dc 0
Rport32 n64 0 50 noise=0

Fi1 0 ni1 Vam1 50
Gi1 0 ni1 1 0 1
Rt1 ni1 0 1 noise=0
Fi2 0 ni2 Vam2 50
Gi2 0 ni2 2 0 1
Rt2 ni2 0 1 noise=0
Fi3 0 ni3 Vam3 50
Gi3 0 ni3 3 0 1
Rt3 ni3 0 1 noise=0
Fi4 0 ni4 Vam4 50
Gi4 0 ni4 4 0 1
Rt4 ni4 0 1 noise=0
Fi5 0 ni5 Vam5 50
Gi5 0 ni5 5 0 1
Rt5 ni5 0 1 noise=0
Fi6 0 ni6 Vam6 50
Gi6 0 ni6 6 0 1
Rt6 ni6 0 1 noise=0
Fi7 0 ni7 Vam7 50
Gi7 0 ni7 7 0 1
Rt7 ni7 0 1 noise=0
Fi8 0 ni8 Vam8 50
Gi8 0 ni8 8 0 1
Rt8 ni8 0 1 noise=0
Fi9 0 ni9 Vam9 50
Gi9 0 ni9 9 0 1
Rt9 ni9 0 1 noise=0
Fi10 0 ni10 Vam10 50
Gi10 0 ni10 10 0 1
Rt10 ni10 0 1 noise=0
Fi11 0 ni11 Vam11 50
Gi11 0 ni11 11 0 1
Rt11 ni11 0 1 noise=0
Fi12 0 ni12 Vam12 50
Gi12 0 ni12 12 0 1
Rt12 ni12 0 1 noise=0
Fi13 0 ni13 Vam13 50
Gi13 0 ni13 13 0 1
Rt13 ni13 0 1 noise=0
Fi14 0 ni14 Vam14 50
Gi14 0 ni14 14 0 1
Rt14 ni14 0 1 noise=0
Fi15 0 ni15 Vam15 50
Gi15 0 ni15 15 0 1
Rt15 ni15 0 1 noise=0
Fi16 0 ni16 Vam16 50
Gi16 0 ni16 16 0 1
Rt16 ni16 0 1 noise=0
Fi17 0 ni17 Vam17 50
Gi17 0 ni17 17 0 1
Rt17 ni17 0 1 noise=0
Fi18 0 ni18 Vam18 50
Gi18 0 ni18 18 0 1
Rt18 ni18 0 1 noise=0
Fi19 0 ni19 Vam19 50
Gi19 0 ni19 19 0 1
Rt19 ni19 0 1 noise=0
Fi20 0 ni20 Vam20 50
Gi20 0 ni20 20 0 1
Rt20 ni20 0 1 noise=0
Fi21 0 ni21 Vam21 50
Gi21 0 ni21 21 0 1
Rt21 ni21 0 1 noise=0
Fi22 0 ni22 Vam22 50
Gi22 0 ni22 22 0 1
Rt22 ni22 0 1 noise=0
Fi23 0 ni23 Vam23 50
Gi23 0 ni23 23 0 1
Rt23 ni23 0 1 noise=0
Fi24 0 ni24 Vam24 50
Gi24 0 ni24 24 0 1
Rt24 ni24 0 1 noise=0
Fi25 0 ni25 Vam25 50
Gi25 0 ni25 25 0 1
Rt25 ni25 0 1 noise=0
Fi26 0 ni26 Vam26 50
Gi26 0 ni26 26 0 1
Rt26 ni26 0 1 noise=0
Fi27 0 ni27 Vam27 50
Gi27 0 ni27 27 0 1
Rt27 ni27 0 1 noise=0
Fi28 0 ni28 Vam28 50
Gi28 0 ni28 28 0 1
Rt28 ni28 0 1 noise=0
Fi29 0 ni29 Vam29 50
Gi29 0 ni29 29 0 1
Rt29 ni29 0 1 noise=0
Fi30 0 ni30 Vam30 50
Gi30 0 ni30 30 0 1
Rt30 ni30 0 1 noise=0
Fi31 0 ni31 Vam31 50
Gi31 0 ni31 31 0 1
Rt31 ni31 0 1 noise=0
Fi32 0 ni32 Vam32 50
Gi32 0 ni32 32 0 1
Rt32 ni32 0 1 noise=0

Ca1 ns1 0 1e-12
Ra1 ns1 0 0.37257923819 noise=0
Ca2 ns2 0 1e-12
Ra2 ns2 0 0.636680753855 noise=0
Ca3 ns3 0 1e-12
Ca4 ns4 0 1e-12
Ra3 ns3 0 5.81195360108 noise=0
Ra4 ns4 0 5.81195360108 noise=0
Ga3 ns3 0 ns4 0 -0.440242930677
Ga4 ns4 0 ns3 0 0.440242930677
Ca5 ns5 0 1e-12
Ca6 ns6 0 1e-12
Ra5 ns5 0 25.0988766288 noise=0
Ra6 ns6 0 25.0988766288 noise=0
Ga5 ns5 0 ns6 0 -0.446182178947
Ga6 ns6 0 ns5 0 0.446182178947
Ca7 ns7 0 1e-12
Ca8 ns8 0 1e-12
Ra7 ns7 0 33.7291568883 noise=0
Ra8 ns8 0 33.7291568883 noise=0
Ga7 ns7 0 ns8 0 -0.437411009606
Ga8 ns8 0 ns7 0 0.437411009606
Ca9 ns9 0 1e-12
Ca10 ns10 0 1e-12
Ra9 ns9 0 30.2651538335 noise=0
Ra10 ns10 0 30.2651538335 noise=0
Ga9 ns9 0 ns10 0 -0.398051468393
Ga10 ns10 0 ns9 0 0.398051468393
Ca11 ns11 0 1e-12
Ca12 ns12 0 1e-12
Ra11 ns11 0 45.9593730353 noise=0
Ra12 ns12 0 45.9593730353 noise=0
Ga11 ns11 0 ns12 0 -0.376970230653
Ga12 ns12 0 ns11 0 0.376970230653
Ca13 ns13 0 1e-12
Ca14 ns14 0 1e-12
Ra13 ns13 0 22.8012326672 noise=0
Ra14 ns14 0 22.8012326672 noise=0
Ga13 ns13 0 ns14 0 -0.365000471119
Ga14 ns14 0 ns13 0 0.365000471119
Ca15 ns15 0 1e-12
Ca16 ns16 0 1e-12
Ra15 ns15 0 27.2711114272 noise=0
Ra16 ns16 0 27.2711114272 noise=0
Ga15 ns15 0 ns16 0 -0.30562060416
Ga16 ns16 0 ns15 0 0.30562060416
Ca17 ns17 0 1e-12
Ca18 ns18 0 1e-12
Ra17 ns17 0 36.1574626321 noise=0
Ra18 ns18 0 36.1574626321 noise=0
Ga17 ns17 0 ns18 0 -0.285967392433
Ga18 ns18 0 ns17 0 0.285967392433
Ca19 ns19 0 1e-12
Ca20 ns20 0 1e-12
Ra19 ns19 0 29.7569279687 noise=0
Ra20 ns20 0 29.7569279687 noise=0
Ga19 ns19 0 ns20 0 -0.276381759385
Ga20 ns20 0 ns19 0 0.276381759385
Ca21 ns21 0 1e-12
Ca22 ns22 0 1e-12
Ra21 ns21 0 20.4882528217 noise=0
Ra22 ns22 0 20.4882528217 noise=0
Ga21 ns21 0 ns22 0 -0.222396936817
Ga22 ns22 0 ns21 0 0.222396936817
Ca23 ns23 0 1e-12
Ca24 ns24 0 1e-12
Ra23 ns23 0 33.0904520292 noise=0
Ra24 ns24 0 33.0904520292 noise=0
Ga23 ns23 0 ns24 0 -0.193660507824
Ga24 ns24 0 ns23 0 0.193660507824
Ca25 ns25 0 1e-12
Ca26 ns26 0 1e-12
Ra25 ns25 0 34.81602158 noise=0
Ra26 ns26 0 34.81602158 noise=0
Ga25 ns25 0 ns26 0 -0.193389614476
Ga26 ns26 0 ns25 0 0.193389614476
Ca27 ns27 0 1e-12
Ca28 ns28 0 1e-12
Ra27 ns27 0 19.0488873153 noise=0
Ra28 ns28 0 19.0488873153 noise=0
Ga27 ns27 0 ns28 0 -0.118879593805
Ga28 ns28 0 ns27 0 0.118879593805
Ca29 ns29 0 1e-12
Ca30 ns30 0 1e-12
Ra29 ns29 0 38.9664963377 noise=0
Ra30 ns30 0 38.9664963377 noise=0
Ga29 ns29 0 ns30 0 -0.098928422879
Ga30 ns30 0 ns29 0 0.098928422879
Ca31 ns31 0 1e-12
Ca32 ns32 0 1e-12
Ra31 ns31 0 22.7620283637 noise=0
Ra32 ns32 0 22.7620283637 noise=0
Ga31 ns31 0 ns32 0 -0.0899282175659
Ga32 ns32 0 ns31 0 0.0899282175659
Ca33 ns33 0 1e-12
Ca34 ns34 0 1e-12
Ra33 ns33 0 21.1351530279 noise=0
Ra34 ns34 0 21.1351530279 noise=0
Ga33 ns33 0 ns34 0 -0.0231807799965
Ga34 ns34 0 ns33 0 0.0231807799965
Ca35 ns35 0 1e-12
Ra35 ns35 0 35.5013141349 noise=0
Ca36 ns36 0 1e-12
Ra36 ns36 0 1368.82509734 noise=0
Ca37 ns37 0 1e-12
Ra37 ns37 0 13570.4439484 noise=0
Ca38 ns38 0 1e-12
Ra38 ns38 0 4070.84562835 noise=0
Ca39 ns39 0 1e-12
Ra39 ns39 0 0.37257923819 noise=0
Ca40 ns40 0 1e-12
Ra40 ns40 0 0.636680753855 noise=0
Ca41 ns41 0 1e-12
Ca42 ns42 0 1e-12
Ra41 ns41 0 5.81195360108 noise=0
Ra42 ns42 0 5.81195360108 noise=0
Ga41 ns41 0 ns42 0 -0.440242930677
Ga42 ns42 0 ns41 0 0.440242930677
Ca43 ns43 0 1e-12
Ca44 ns44 0 1e-12
Ra43 ns43 0 25.0988766288 noise=0
Ra44 ns44 0 25.0988766288 noise=0
Ga43 ns43 0 ns44 0 -0.446182178947
Ga44 ns44 0 ns43 0 0.446182178947
Ca45 ns45 0 1e-12
Ca46 ns46 0 1e-12
Ra45 ns45 0 33.7291568883 noise=0
Ra46 ns46 0 33.7291568883 noise=0
Ga45 ns45 0 ns46 0 -0.437411009606
Ga46 ns46 0 ns45 0 0.437411009606
Ca47 ns47 0 1e-12
Ca48 ns48 0 1e-12
Ra47 ns47 0 30.2651538335 noise=0
Ra48 ns48 0 30.2651538335 noise=0
Ga47 ns47 0 ns48 0 -0.398051468393
Ga48 ns48 0 ns47 0 0.398051468393
Ca49 ns49 0 1e-12
Ca50 ns50 0 1e-12
Ra49 ns49 0 45.9593730353 noise=0
Ra50 ns50 0 45.9593730353 noise=0
Ga49 ns49 0 ns50 0 -0.376970230653
Ga50 ns50 0 ns49 0 0.376970230653
Ca51 ns51 0 1e-12
Ca52 ns52 0 1e-12
Ra51 ns51 0 22.8012326672 noise=0
Ra52 ns52 0 22.8012326672 noise=0
Ga51 ns51 0 ns52 0 -0.365000471119
Ga52 ns52 0 ns51 0 0.365000471119
Ca53 ns53 0 1e-12
Ca54 ns54 0 1e-12
Ra53 ns53 0 27.2711114272 noise=0
Ra54 ns54 0 27.2711114272 noise=0
Ga53 ns53 0 ns54 0 -0.30562060416
Ga54 ns54 0 ns53 0 0.30562060416
Ca55 ns55 0 1e-12
Ca56 ns56 0 1e-12
Ra55 ns55 0 36.1574626321 noise=0
Ra56 ns56 0 36.1574626321 noise=0
Ga55 ns55 0 ns56 0 -0.285967392433
Ga56 ns56 0 ns55 0 0.285967392433
Ca57 ns57 0 1e-12
Ca58 ns58 0 1e-12
Ra57 ns57 0 29.7569279687 noise=0
Ra58 ns58 0 29.7569279687 noise=0
Ga57 ns57 0 ns58 0 -0.276381759385
Ga58 ns58 0 ns57 0 0.276381759385
Ca59 ns59 0 1e-12
Ca60 ns60 0 1e-12
Ra59 ns59 0 20.4882528217 noise=0
Ra60 ns60 0 20.4882528217 noise=0
Ga59 ns59 0 ns60 0 -0.222396936817
Ga60 ns60 0 ns59 0 0.222396936817
Ca61 ns61 0 1e-12
Ca62 ns62 0 1e-12
Ra61 ns61 0 33.0904520292 noise=0
Ra62 ns62 0 33.0904520292 noise=0
Ga61 ns61 0 ns62 0 -0.193660507824
Ga62 ns62 0 ns61 0 0.193660507824
Ca63 ns63 0 1e-12
Ca64 ns64 0 1e-12
Ra63 ns63 0 34.81602158 noise=0
Ra64 ns64 0 34.81602158 noise=0
Ga63 ns63 0 ns64 0 -0.193389614476
Ga64 ns64 0 ns63 0 0.193389614476
Ca65 ns65 0 1e-12
Ca66 ns66 0 1e-12
Ra65 ns65 0 19.0488873153 noise=0
Ra66 ns66 0 19.0488873153 noise=0
Ga65 ns65 0 ns66 0 -0.118879593805
Ga66 ns66 0 ns65 0 0.118879593805
Ca67 ns67 0 1e-12
Ca68 ns68 0 1e-12
Ra67 ns67 0 38.9664963377 noise=0
Ra68 ns68 0 38.9664963377 noise=0
Ga67 ns67 0 ns68 0 -0.098928422879
Ga68 ns68 0 ns67 0 0.098928422879
Ca69 ns69 0 1e-12
Ca70 ns70 0 1e-12
Ra69 ns69 0 22.7620283637 noise=0
Ra70 ns70 0 22.7620283637 noise=0
Ga69 ns69 0 ns70 0 -0.0899282175659
Ga70 ns70 0 ns69 0 0.0899282175659
Ca71 ns71 0 1e-12
Ca72 ns72 0 1e-12
Ra71 ns71 0 21.1351530279 noise=0
Ra72 ns72 0 21.1351530279 noise=0
Ga71 ns71 0 ns72 0 -0.0231807799965
Ga72 ns72 0 ns71 0 0.0231807799965
Ca73 ns73 0 1e-12
Ra73 ns73 0 35.5013141349 noise=0
Ca74 ns74 0 1e-12
Ra74 ns74 0 1368.82509734 noise=0
Ca75 ns75 0 1e-12
Ra75 ns75 0 13570.4439484 noise=0
Ca76 ns76 0 1e-12
Ra76 ns76 0 4070.84562835 noise=0
Ca77 ns77 0 1e-12
Ra77 ns77 0 0.37257923819 noise=0
Ca78 ns78 0 1e-12
Ra78 ns78 0 0.636680753855 noise=0
Ca79 ns79 0 1e-12
Ca80 ns80 0 1e-12
Ra79 ns79 0 5.81195360108 noise=0
Ra80 ns80 0 5.81195360108 noise=0
Ga79 ns79 0 ns80 0 -0.440242930677
Ga80 ns80 0 ns79 0 0.440242930677
Ca81 ns81 0 1e-12
Ca82 ns82 0 1e-12
Ra81 ns81 0 25.0988766288 noise=0
Ra82 ns82 0 25.0988766288 noise=0
Ga81 ns81 0 ns82 0 -0.446182178947
Ga82 ns82 0 ns81 0 0.446182178947
Ca83 ns83 0 1e-12
Ca84 ns84 0 1e-12
Ra83 ns83 0 33.7291568883 noise=0
Ra84 ns84 0 33.7291568883 noise=0
Ga83 ns83 0 ns84 0 -0.437411009606
Ga84 ns84 0 ns83 0 0.437411009606
Ca85 ns85 0 1e-12
Ca86 ns86 0 1e-12
Ra85 ns85 0 30.2651538335 noise=0
Ra86 ns86 0 30.2651538335 noise=0
Ga85 ns85 0 ns86 0 -0.398051468393
Ga86 ns86 0 ns85 0 0.398051468393
Ca87 ns87 0 1e-12
Ca88 ns88 0 1e-12
Ra87 ns87 0 45.9593730353 noise=0
Ra88 ns88 0 45.9593730353 noise=0
Ga87 ns87 0 ns88 0 -0.376970230653
Ga88 ns88 0 ns87 0 0.376970230653
Ca89 ns89 0 1e-12
Ca90 ns90 0 1e-12
Ra89 ns89 0 22.8012326672 noise=0
Ra90 ns90 0 22.8012326672 noise=0
Ga89 ns89 0 ns90 0 -0.365000471119
Ga90 ns90 0 ns89 0 0.365000471119
Ca91 ns91 0 1e-12
Ca92 ns92 0 1e-12
Ra91 ns91 0 27.2711114272 noise=0
Ra92 ns92 0 27.2711114272 noise=0
Ga91 ns91 0 ns92 0 -0.30562060416
Ga92 ns92 0 ns91 0 0.30562060416
Ca93 ns93 0 1e-12
Ca94 ns94 0 1e-12
Ra93 ns93 0 36.1574626321 noise=0
Ra94 ns94 0 36.1574626321 noise=0
Ga93 ns93 0 ns94 0 -0.285967392433
Ga94 ns94 0 ns93 0 0.285967392433
Ca95 ns95 0 1e-12
Ca96 ns96 0 1e-12
Ra95 ns95 0 29.7569279687 noise=0
Ra96 ns96 0 29.7569279687 noise=0
Ga95 ns95 0 ns96 0 -0.276381759385
Ga96 ns96 0 ns95 0 0.276381759385
Ca97 ns97 0 1e-12
Ca98 ns98 0 1e-12
Ra97 ns97 0 20.4882528217 noise=0
Ra98 ns98 0 20.4882528217 noise=0
Ga97 ns97 0 ns98 0 -0.222396936817
Ga98 ns98 0 ns97 0 0.222396936817
Ca99 ns99 0 1e-12
Ca100 ns100 0 1e-12
Ra99 ns99 0 33.0904520292 noise=0
Ra100 ns100 0 33.0904520292 noise=0
Ga99 ns99 0 ns100 0 -0.193660507824
Ga100 ns100 0 ns99 0 0.193660507824
Ca101 ns101 0 1e-12
Ca102 ns102 0 1e-12
Ra101 ns101 0 34.81602158 noise=0
Ra102 ns102 0 34.81602158 noise=0
Ga101 ns101 0 ns102 0 -0.193389614476
Ga102 ns102 0 ns101 0 0.193389614476
Ca103 ns103 0 1e-12
Ca104 ns104 0 1e-12
Ra103 ns103 0 19.0488873153 noise=0
Ra104 ns104 0 19.0488873153 noise=0
Ga103 ns103 0 ns104 0 -0.118879593805
Ga104 ns104 0 ns103 0 0.118879593805
Ca105 ns105 0 1e-12
Ca106 ns106 0 1e-12
Ra105 ns105 0 38.9664963377 noise=0
Ra106 ns106 0 38.9664963377 noise=0
Ga105 ns105 0 ns106 0 -0.098928422879
Ga106 ns106 0 ns105 0 0.098928422879
Ca107 ns107 0 1e-12
Ca108 ns108 0 1e-12
Ra107 ns107 0 22.7620283637 noise=0
Ra108 ns108 0 22.7620283637 noise=0
Ga107 ns107 0 ns108 0 -0.0899282175659
Ga108 ns108 0 ns107 0 0.0899282175659
Ca109 ns109 0 1e-12
Ca110 ns110 0 1e-12
Ra109 ns109 0 21.1351530279 noise=0
Ra110 ns110 0 21.1351530279 noise=0
Ga109 ns109 0 ns110 0 -0.0231807799965
Ga110 ns110 0 ns109 0 0.0231807799965
Ca111 ns111 0 1e-12
Ra111 ns111 0 35.5013141349 noise=0
Ca112 ns112 0 1e-12
Ra112 ns112 0 1368.82509734 noise=0
Ca113 ns113 0 1e-12
Ra113 ns113 0 13570.4439484 noise=0
Ca114 ns114 0 1e-12
Ra114 ns114 0 4070.84562835 noise=0
Ca115 ns115 0 1e-12
Ra115 ns115 0 0.37257923819 noise=0
Ca116 ns116 0 1e-12
Ra116 ns116 0 0.636680753855 noise=0
Ca117 ns117 0 1e-12
Ca118 ns118 0 1e-12
Ra117 ns117 0 5.81195360108 noise=0
Ra118 ns118 0 5.81195360108 noise=0
Ga117 ns117 0 ns118 0 -0.440242930677
Ga118 ns118 0 ns117 0 0.440242930677
Ca119 ns119 0 1e-12
Ca120 ns120 0 1e-12
Ra119 ns119 0 25.0988766288 noise=0
Ra120 ns120 0 25.0988766288 noise=0
Ga119 ns119 0 ns120 0 -0.446182178947
Ga120 ns120 0 ns119 0 0.446182178947
Ca121 ns121 0 1e-12
Ca122 ns122 0 1e-12
Ra121 ns121 0 33.7291568883 noise=0
Ra122 ns122 0 33.7291568883 noise=0
Ga121 ns121 0 ns122 0 -0.437411009606
Ga122 ns122 0 ns121 0 0.437411009606
Ca123 ns123 0 1e-12
Ca124 ns124 0 1e-12
Ra123 ns123 0 30.2651538335 noise=0
Ra124 ns124 0 30.2651538335 noise=0
Ga123 ns123 0 ns124 0 -0.398051468393
Ga124 ns124 0 ns123 0 0.398051468393
Ca125 ns125 0 1e-12
Ca126 ns126 0 1e-12
Ra125 ns125 0 45.9593730353 noise=0
Ra126 ns126 0 45.9593730353 noise=0
Ga125 ns125 0 ns126 0 -0.376970230653
Ga126 ns126 0 ns125 0 0.376970230653
Ca127 ns127 0 1e-12
Ca128 ns128 0 1e-12
Ra127 ns127 0 22.8012326672 noise=0
Ra128 ns128 0 22.8012326672 noise=0
Ga127 ns127 0 ns128 0 -0.365000471119
Ga128 ns128 0 ns127 0 0.365000471119
Ca129 ns129 0 1e-12
Ca130 ns130 0 1e-12
Ra129 ns129 0 27.2711114272 noise=0
Ra130 ns130 0 27.2711114272 noise=0
Ga129 ns129 0 ns130 0 -0.30562060416
Ga130 ns130 0 ns129 0 0.30562060416
Ca131 ns131 0 1e-12
Ca132 ns132 0 1e-12
Ra131 ns131 0 36.1574626321 noise=0
Ra132 ns132 0 36.1574626321 noise=0
Ga131 ns131 0 ns132 0 -0.285967392433
Ga132 ns132 0 ns131 0 0.285967392433
Ca133 ns133 0 1e-12
Ca134 ns134 0 1e-12
Ra133 ns133 0 29.7569279687 noise=0
Ra134 ns134 0 29.7569279687 noise=0
Ga133 ns133 0 ns134 0 -0.276381759385
Ga134 ns134 0 ns133 0 0.276381759385
Ca135 ns135 0 1e-12
Ca136 ns136 0 1e-12
Ra135 ns135 0 20.4882528217 noise=0
Ra136 ns136 0 20.4882528217 noise=0
Ga135 ns135 0 ns136 0 -0.222396936817
Ga136 ns136 0 ns135 0 0.222396936817
Ca137 ns137 0 1e-12
Ca138 ns138 0 1e-12
Ra137 ns137 0 33.0904520292 noise=0
Ra138 ns138 0 33.0904520292 noise=0
Ga137 ns137 0 ns138 0 -0.193660507824
Ga138 ns138 0 ns137 0 0.193660507824
Ca139 ns139 0 1e-12
Ca140 ns140 0 1e-12
Ra139 ns139 0 34.81602158 noise=0
Ra140 ns140 0 34.81602158 noise=0
Ga139 ns139 0 ns140 0 -0.193389614476
Ga140 ns140 0 ns139 0 0.193389614476
Ca141 ns141 0 1e-12
Ca142 ns142 0 1e-12
Ra141 ns141 0 19.0488873153 noise=0
Ra142 ns142 0 19.0488873153 noise=0
Ga141 ns141 0 ns142 0 -0.118879593805
Ga142 ns142 0 ns141 0 0.118879593805
Ca143 ns143 0 1e-12
Ca144 ns144 0 1e-12
Ra143 ns143 0 38.9664963377 noise=0
Ra144 ns144 0 38.9664963377 noise=0
Ga143 ns143 0 ns144 0 -0.098928422879
Ga144 ns144 0 ns143 0 0.098928422879
Ca145 ns145 0 1e-12
Ca146 ns146 0 1e-12
Ra145 ns145 0 22.7620283637 noise=0
Ra146 ns146 0 22.7620283637 noise=0
Ga145 ns145 0 ns146 0 -0.0899282175659
Ga146 ns146 0 ns145 0 0.0899282175659
Ca147 ns147 0 1e-12
Ca148 ns148 0 1e-12
Ra147 ns147 0 21.1351530279 noise=0
Ra148 ns148 0 21.1351530279 noise=0
Ga147 ns147 0 ns148 0 -0.0231807799965
Ga148 ns148 0 ns147 0 0.0231807799965
Ca149 ns149 0 1e-12
Ra149 ns149 0 35.5013141349 noise=0
Ca150 ns150 0 1e-12
Ra150 ns150 0 1368.82509734 noise=0
Ca151 ns151 0 1e-12
Ra151 ns151 0 13570.4439484 noise=0
Ca152 ns152 0 1e-12
Ra152 ns152 0 4070.84562835 noise=0
Ca153 ns153 0 1e-12
Ra153 ns153 0 0.37257923819 noise=0
Ca154 ns154 0 1e-12
Ra154 ns154 0 0.636680753855 noise=0
Ca155 ns155 0 1e-12
Ca156 ns156 0 1e-12
Ra155 ns155 0 5.81195360108 noise=0
Ra156 ns156 0 5.81195360108 noise=0
Ga155 ns155 0 ns156 0 -0.440242930677
Ga156 ns156 0 ns155 0 0.440242930677
Ca157 ns157 0 1e-12
Ca158 ns158 0 1e-12
Ra157 ns157 0 25.0988766288 noise=0
Ra158 ns158 0 25.0988766288 noise=0
Ga157 ns157 0 ns158 0 -0.446182178947
Ga158 ns158 0 ns157 0 0.446182178947
Ca159 ns159 0 1e-12
Ca160 ns160 0 1e-12
Ra159 ns159 0 33.7291568883 noise=0
Ra160 ns160 0 33.7291568883 noise=0
Ga159 ns159 0 ns160 0 -0.437411009606
Ga160 ns160 0 ns159 0 0.437411009606
Ca161 ns161 0 1e-12
Ca162 ns162 0 1e-12
Ra161 ns161 0 30.2651538335 noise=0
Ra162 ns162 0 30.2651538335 noise=0
Ga161 ns161 0 ns162 0 -0.398051468393
Ga162 ns162 0 ns161 0 0.398051468393
Ca163 ns163 0 1e-12
Ca164 ns164 0 1e-12
Ra163 ns163 0 45.9593730353 noise=0
Ra164 ns164 0 45.9593730353 noise=0
Ga163 ns163 0 ns164 0 -0.376970230653
Ga164 ns164 0 ns163 0 0.376970230653
Ca165 ns165 0 1e-12
Ca166 ns166 0 1e-12
Ra165 ns165 0 22.8012326672 noise=0
Ra166 ns166 0 22.8012326672 noise=0
Ga165 ns165 0 ns166 0 -0.365000471119
Ga166 ns166 0 ns165 0 0.365000471119
Ca167 ns167 0 1e-12
Ca168 ns168 0 1e-12
Ra167 ns167 0 27.2711114272 noise=0
Ra168 ns168 0 27.2711114272 noise=0
Ga167 ns167 0 ns168 0 -0.30562060416
Ga168 ns168 0 ns167 0 0.30562060416
Ca169 ns169 0 1e-12
Ca170 ns170 0 1e-12
Ra169 ns169 0 36.1574626321 noise=0
Ra170 ns170 0 36.1574626321 noise=0
Ga169 ns169 0 ns170 0 -0.285967392433
Ga170 ns170 0 ns169 0 0.285967392433
Ca171 ns171 0 1e-12
Ca172 ns172 0 1e-12
Ra171 ns171 0 29.7569279687 noise=0
Ra172 ns172 0 29.7569279687 noise=0
Ga171 ns171 0 ns172 0 -0.276381759385
Ga172 ns172 0 ns171 0 0.276381759385
Ca173 ns173 0 1e-12
Ca174 ns174 0 1e-12
Ra173 ns173 0 20.4882528217 noise=0
Ra174 ns174 0 20.4882528217 noise=0
Ga173 ns173 0 ns174 0 -0.222396936817
Ga174 ns174 0 ns173 0 0.222396936817
Ca175 ns175 0 1e-12
Ca176 ns176 0 1e-12
Ra175 ns175 0 33.0904520292 noise=0
Ra176 ns176 0 33.0904520292 noise=0
Ga175 ns175 0 ns176 0 -0.193660507824
Ga176 ns176 0 ns175 0 0.193660507824
Ca177 ns177 0 1e-12
Ca178 ns178 0 1e-12
Ra177 ns177 0 34.81602158 noise=0
Ra178 ns178 0 34.81602158 noise=0
Ga177 ns177 0 ns178 0 -0.193389614476
Ga178 ns178 0 ns177 0 0.193389614476
Ca179 ns179 0 1e-12
Ca180 ns180 0 1e-12
Ra179 ns179 0 19.0488873153 noise=0
Ra180 ns180 0 19.0488873153 noise=0
Ga179 ns179 0 ns180 0 -0.118879593805
Ga180 ns180 0 ns179 0 0.118879593805
Ca181 ns181 0 1e-12
Ca182 ns182 0 1e-12
Ra181 ns181 0 38.9664963377 noise=0
Ra182 ns182 0 38.9664963377 noise=0
Ga181 ns181 0 ns182 0 -0.098928422879
Ga182 ns182 0 ns181 0 0.098928422879
Ca183 ns183 0 1e-12
Ca184 ns184 0 1e-12
Ra183 ns183 0 22.7620283637 noise=0
Ra184 ns184 0 22.7620283637 noise=0
Ga183 ns183 0 ns184 0 -0.0899282175659
Ga184 ns184 0 ns183 0 0.0899282175659
Ca185 ns185 0 1e-12
Ca186 ns186 0 1e-12
Ra185 ns185 0 21.1351530279 noise=0
Ra186 ns186 0 21.1351530279 noise=0
Ga185 ns185 0 ns186 0 -0.0231807799965
Ga186 ns186 0 ns185 0 0.0231807799965
Ca187 ns187 0 1e-12
Ra187 ns187 0 35.5013141349 noise=0
Ca188 ns188 0 1e-12
Ra188 ns188 0 1368.82509734 noise=0
Ca189 ns189 0 1e-12
Ra189 ns189 0 13570.4439484 noise=0
Ca190 ns190 0 1e-12
Ra190 ns190 0 4070.84562835 noise=0
Ca191 ns191 0 1e-12
Ra191 ns191 0 0.37257923819 noise=0
Ca192 ns192 0 1e-12
Ra192 ns192 0 0.636680753855 noise=0
Ca193 ns193 0 1e-12
Ca194 ns194 0 1e-12
Ra193 ns193 0 5.81195360108 noise=0
Ra194 ns194 0 5.81195360108 noise=0
Ga193 ns193 0 ns194 0 -0.440242930677
Ga194 ns194 0 ns193 0 0.440242930677
Ca195 ns195 0 1e-12
Ca196 ns196 0 1e-12
Ra195 ns195 0 25.0988766288 noise=0
Ra196 ns196 0 25.0988766288 noise=0
Ga195 ns195 0 ns196 0 -0.446182178947
Ga196 ns196 0 ns195 0 0.446182178947
Ca197 ns197 0 1e-12
Ca198 ns198 0 1e-12
Ra197 ns197 0 33.7291568883 noise=0
Ra198 ns198 0 33.7291568883 noise=0
Ga197 ns197 0 ns198 0 -0.437411009606
Ga198 ns198 0 ns197 0 0.437411009606
Ca199 ns199 0 1e-12
Ca200 ns200 0 1e-12
Ra199 ns199 0 30.2651538335 noise=0
Ra200 ns200 0 30.2651538335 noise=0
Ga199 ns199 0 ns200 0 -0.398051468393
Ga200 ns200 0 ns199 0 0.398051468393
Ca201 ns201 0 1e-12
Ca202 ns202 0 1e-12
Ra201 ns201 0 45.9593730353 noise=0
Ra202 ns202 0 45.9593730353 noise=0
Ga201 ns201 0 ns202 0 -0.376970230653
Ga202 ns202 0 ns201 0 0.376970230653
Ca203 ns203 0 1e-12
Ca204 ns204 0 1e-12
Ra203 ns203 0 22.8012326672 noise=0
Ra204 ns204 0 22.8012326672 noise=0
Ga203 ns203 0 ns204 0 -0.365000471119
Ga204 ns204 0 ns203 0 0.365000471119
Ca205 ns205 0 1e-12
Ca206 ns206 0 1e-12
Ra205 ns205 0 27.2711114272 noise=0
Ra206 ns206 0 27.2711114272 noise=0
Ga205 ns205 0 ns206 0 -0.30562060416
Ga206 ns206 0 ns205 0 0.30562060416
Ca207 ns207 0 1e-12
Ca208 ns208 0 1e-12
Ra207 ns207 0 36.1574626321 noise=0
Ra208 ns208 0 36.1574626321 noise=0
Ga207 ns207 0 ns208 0 -0.285967392433
Ga208 ns208 0 ns207 0 0.285967392433
Ca209 ns209 0 1e-12
Ca210 ns210 0 1e-12
Ra209 ns209 0 29.7569279687 noise=0
Ra210 ns210 0 29.7569279687 noise=0
Ga209 ns209 0 ns210 0 -0.276381759385
Ga210 ns210 0 ns209 0 0.276381759385
Ca211 ns211 0 1e-12
Ca212 ns212 0 1e-12
Ra211 ns211 0 20.4882528217 noise=0
Ra212 ns212 0 20.4882528217 noise=0
Ga211 ns211 0 ns212 0 -0.222396936817
Ga212 ns212 0 ns211 0 0.222396936817
Ca213 ns213 0 1e-12
Ca214 ns214 0 1e-12
Ra213 ns213 0 33.0904520292 noise=0
Ra214 ns214 0 33.0904520292 noise=0
Ga213 ns213 0 ns214 0 -0.193660507824
Ga214 ns214 0 ns213 0 0.193660507824
Ca215 ns215 0 1e-12
Ca216 ns216 0 1e-12
Ra215 ns215 0 34.81602158 noise=0
Ra216 ns216 0 34.81602158 noise=0
Ga215 ns215 0 ns216 0 -0.193389614476
Ga216 ns216 0 ns215 0 0.193389614476
Ca217 ns217 0 1e-12
Ca218 ns218 0 1e-12
Ra217 ns217 0 19.0488873153 noise=0
Ra218 ns218 0 19.0488873153 noise=0
Ga217 ns217 0 ns218 0 -0.118879593805
Ga218 ns218 0 ns217 0 0.118879593805
Ca219 ns219 0 1e-12
Ca220 ns220 0 1e-12
Ra219 ns219 0 38.9664963377 noise=0
Ra220 ns220 0 38.9664963377 noise=0
Ga219 ns219 0 ns220 0 -0.098928422879
Ga220 ns220 0 ns219 0 0.098928422879
Ca221 ns221 0 1e-12
Ca222 ns222 0 1e-12
Ra221 ns221 0 22.7620283637 noise=0
Ra222 ns222 0 22.7620283637 noise=0
Ga221 ns221 0 ns222 0 -0.0899282175659
Ga222 ns222 0 ns221 0 0.0899282175659
Ca223 ns223 0 1e-12
Ca224 ns224 0 1e-12
Ra223 ns223 0 21.1351530279 noise=0
Ra224 ns224 0 21.1351530279 noise=0
Ga223 ns223 0 ns224 0 -0.0231807799965
Ga224 ns224 0 ns223 0 0.0231807799965
Ca225 ns225 0 1e-12
Ra225 ns225 0 35.5013141349 noise=0
Ca226 ns226 0 1e-12
Ra226 ns226 0 1368.82509734 noise=0
Ca227 ns227 0 1e-12
Ra227 ns227 0 13570.4439484 noise=0
Ca228 ns228 0 1e-12
Ra228 ns228 0 4070.84562835 noise=0
Ca229 ns229 0 1e-12
Ra229 ns229 0 0.37257923819 noise=0
Ca230 ns230 0 1e-12
Ra230 ns230 0 0.636680753855 noise=0
Ca231 ns231 0 1e-12
Ca232 ns232 0 1e-12
Ra231 ns231 0 5.81195360108 noise=0
Ra232 ns232 0 5.81195360108 noise=0
Ga231 ns231 0 ns232 0 -0.440242930677
Ga232 ns232 0 ns231 0 0.440242930677
Ca233 ns233 0 1e-12
Ca234 ns234 0 1e-12
Ra233 ns233 0 25.0988766288 noise=0
Ra234 ns234 0 25.0988766288 noise=0
Ga233 ns233 0 ns234 0 -0.446182178947
Ga234 ns234 0 ns233 0 0.446182178947
Ca235 ns235 0 1e-12
Ca236 ns236 0 1e-12
Ra235 ns235 0 33.7291568883 noise=0
Ra236 ns236 0 33.7291568883 noise=0
Ga235 ns235 0 ns236 0 -0.437411009606
Ga236 ns236 0 ns235 0 0.437411009606
Ca237 ns237 0 1e-12
Ca238 ns238 0 1e-12
Ra237 ns237 0 30.2651538335 noise=0
Ra238 ns238 0 30.2651538335 noise=0
Ga237 ns237 0 ns238 0 -0.398051468393
Ga238 ns238 0 ns237 0 0.398051468393
Ca239 ns239 0 1e-12
Ca240 ns240 0 1e-12
Ra239 ns239 0 45.9593730353 noise=0
Ra240 ns240 0 45.9593730353 noise=0
Ga239 ns239 0 ns240 0 -0.376970230653
Ga240 ns240 0 ns239 0 0.376970230653
Ca241 ns241 0 1e-12
Ca242 ns242 0 1e-12
Ra241 ns241 0 22.8012326672 noise=0
Ra242 ns242 0 22.8012326672 noise=0
Ga241 ns241 0 ns242 0 -0.365000471119
Ga242 ns242 0 ns241 0 0.365000471119
Ca243 ns243 0 1e-12
Ca244 ns244 0 1e-12
Ra243 ns243 0 27.2711114272 noise=0
Ra244 ns244 0 27.2711114272 noise=0
Ga243 ns243 0 ns244 0 -0.30562060416
Ga244 ns244 0 ns243 0 0.30562060416
Ca245 ns245 0 1e-12
Ca246 ns246 0 1e-12
Ra245 ns245 0 36.1574626321 noise=0
Ra246 ns246 0 36.1574626321 noise=0
Ga245 ns245 0 ns246 0 -0.285967392433
Ga246 ns246 0 ns245 0 0.285967392433
Ca247 ns247 0 1e-12
Ca248 ns248 0 1e-12
Ra247 ns247 0 29.7569279687 noise=0
Ra248 ns248 0 29.7569279687 noise=0
Ga247 ns247 0 ns248 0 -0.276381759385
Ga248 ns248 0 ns247 0 0.276381759385
Ca249 ns249 0 1e-12
Ca250 ns250 0 1e-12
Ra249 ns249 0 20.4882528217 noise=0
Ra250 ns250 0 20.4882528217 noise=0
Ga249 ns249 0 ns250 0 -0.222396936817
Ga250 ns250 0 ns249 0 0.222396936817
Ca251 ns251 0 1e-12
Ca252 ns252 0 1e-12
Ra251 ns251 0 33.0904520292 noise=0
Ra252 ns252 0 33.0904520292 noise=0
Ga251 ns251 0 ns252 0 -0.193660507824
Ga252 ns252 0 ns251 0 0.193660507824
Ca253 ns253 0 1e-12
Ca254 ns254 0 1e-12
Ra253 ns253 0 34.81602158 noise=0
Ra254 ns254 0 34.81602158 noise=0
Ga253 ns253 0 ns254 0 -0.193389614476
Ga254 ns254 0 ns253 0 0.193389614476
Ca255 ns255 0 1e-12
Ca256 ns256 0 1e-12
Ra255 ns255 0 19.0488873153 noise=0
Ra256 ns256 0 19.0488873153 noise=0
Ga255 ns255 0 ns256 0 -0.118879593805
Ga256 ns256 0 ns255 0 0.118879593805
Ca257 ns257 0 1e-12
Ca258 ns258 0 1e-12
Ra257 ns257 0 38.9664963377 noise=0
Ra258 ns258 0 38.9664963377 noise=0
Ga257 ns257 0 ns258 0 -0.098928422879
Ga258 ns258 0 ns257 0 0.098928422879
Ca259 ns259 0 1e-12
Ca260 ns260 0 1e-12
Ra259 ns259 0 22.7620283637 noise=0
Ra260 ns260 0 22.7620283637 noise=0
Ga259 ns259 0 ns260 0 -0.0899282175659
Ga260 ns260 0 ns259 0 0.0899282175659
Ca261 ns261 0 1e-12
Ca262 ns262 0 1e-12
Ra261 ns261 0 21.1351530279 noise=0
Ra262 ns262 0 21.1351530279 noise=0
Ga261 ns261 0 ns262 0 -0.0231807799965
Ga262 ns262 0 ns261 0 0.0231807799965
Ca263 ns263 0 1e-12
Ra263 ns263 0 35.5013141349 noise=0
Ca264 ns264 0 1e-12
Ra264 ns264 0 1368.82509734 noise=0
Ca265 ns265 0 1e-12
Ra265 ns265 0 13570.4439484 noise=0
Ca266 ns266 0 1e-12
Ra266 ns266 0 4070.84562835 noise=0
Ca267 ns267 0 1e-12
Ra267 ns267 0 0.37257923819 noise=0
Ca268 ns268 0 1e-12
Ra268 ns268 0 0.636680753855 noise=0
Ca269 ns269 0 1e-12
Ca270 ns270 0 1e-12
Ra269 ns269 0 5.81195360108 noise=0
Ra270 ns270 0 5.81195360108 noise=0
Ga269 ns269 0 ns270 0 -0.440242930677
Ga270 ns270 0 ns269 0 0.440242930677
Ca271 ns271 0 1e-12
Ca272 ns272 0 1e-12
Ra271 ns271 0 25.0988766288 noise=0
Ra272 ns272 0 25.0988766288 noise=0
Ga271 ns271 0 ns272 0 -0.446182178947
Ga272 ns272 0 ns271 0 0.446182178947
Ca273 ns273 0 1e-12
Ca274 ns274 0 1e-12
Ra273 ns273 0 33.7291568883 noise=0
Ra274 ns274 0 33.7291568883 noise=0
Ga273 ns273 0 ns274 0 -0.437411009606
Ga274 ns274 0 ns273 0 0.437411009606
Ca275 ns275 0 1e-12
Ca276 ns276 0 1e-12
Ra275 ns275 0 30.2651538335 noise=0
Ra276 ns276 0 30.2651538335 noise=0
Ga275 ns275 0 ns276 0 -0.398051468393
Ga276 ns276 0 ns275 0 0.398051468393
Ca277 ns277 0 1e-12
Ca278 ns278 0 1e-12
Ra277 ns277 0 45.9593730353 noise=0
Ra278 ns278 0 45.9593730353 noise=0
Ga277 ns277 0 ns278 0 -0.376970230653
Ga278 ns278 0 ns277 0 0.376970230653
Ca279 ns279 0 1e-12
Ca280 ns280 0 1e-12
Ra279 ns279 0 22.8012326672 noise=0
Ra280 ns280 0 22.8012326672 noise=0
Ga279 ns279 0 ns280 0 -0.365000471119
Ga280 ns280 0 ns279 0 0.365000471119
Ca281 ns281 0 1e-12
Ca282 ns282 0 1e-12
Ra281 ns281 0 27.2711114272 noise=0
Ra282 ns282 0 27.2711114272 noise=0
Ga281 ns281 0 ns282 0 -0.30562060416
Ga282 ns282 0 ns281 0 0.30562060416
Ca283 ns283 0 1e-12
Ca284 ns284 0 1e-12
Ra283 ns283 0 36.1574626321 noise=0
Ra284 ns284 0 36.1574626321 noise=0
Ga283 ns283 0 ns284 0 -0.285967392433
Ga284 ns284 0 ns283 0 0.285967392433
Ca285 ns285 0 1e-12
Ca286 ns286 0 1e-12
Ra285 ns285 0 29.7569279687 noise=0
Ra286 ns286 0 29.7569279687 noise=0
Ga285 ns285 0 ns286 0 -0.276381759385
Ga286 ns286 0 ns285 0 0.276381759385
Ca287 ns287 0 1e-12
Ca288 ns288 0 1e-12
Ra287 ns287 0 20.4882528217 noise=0
Ra288 ns288 0 20.4882528217 noise=0
Ga287 ns287 0 ns288 0 -0.222396936817
Ga288 ns288 0 ns287 0 0.222396936817
Ca289 ns289 0 1e-12
Ca290 ns290 0 1e-12
Ra289 ns289 0 33.0904520292 noise=0
Ra290 ns290 0 33.0904520292 noise=0
Ga289 ns289 0 ns290 0 -0.193660507824
Ga290 ns290 0 ns289 0 0.193660507824
Ca291 ns291 0 1e-12
Ca292 ns292 0 1e-12
Ra291 ns291 0 34.81602158 noise=0
Ra292 ns292 0 34.81602158 noise=0
Ga291 ns291 0 ns292 0 -0.193389614476
Ga292 ns292 0 ns291 0 0.193389614476
Ca293 ns293 0 1e-12
Ca294 ns294 0 1e-12
Ra293 ns293 0 19.0488873153 noise=0
Ra294 ns294 0 19.0488873153 noise=0
Ga293 ns293 0 ns294 0 -0.118879593805