* BEGIN ANSOFT HEADER
* node 1    trace_p_0_T1
* node 2    trace_n_0_T1
* node 3    trace_p_1_T1
* node 4    trace_n_1_T1
* node 5    trace_p_0_T2
* node 6    trace_n_0_T2
* node 7    trace_p_1_T2
* node 8    trace_n_1_T2
*   Format: HSPICE
*   Topckt: m4lines_HFSS_fws
*     Date: Sat Jun 06 10:16:42 2020
*    Notes: Frequency range: 1e+08 to 7e+10 Hz, 700 points
*         : Maximum number of poles: 10000
*         : S-Matrix fitting error tolerance: 0.001
*         : Causality check tolerance: auto
*         : Passivity enforcement: on (by iterated fitting)
*         : Causality enforcement: off
*         : Fitting method: FastFit
*         : Matrix fitting: By entire matrix (required by FastFit)
*         : Ensure Z-parameter accuracy: on
*         : Relative error control: off
*         : Common ground option: on
*         : Final fitting error: 0.00384938
*         : Final model order: 328
* END ANSOFT HEADER

.subckt m4lines_HFSS_fws 1 2 3 4 5 6 7 8
Vam1 1 n2 dc 0
Rport1 n2 0 50 noise=0
Vam2 2 n4 dc 0
Rport2 n4 0 50 noise=0
Vam3 3 n6 dc 0
Rport3 n6 0 50 noise=0
Vam4 4 n8 dc 0
Rport4 n8 0 50 noise=0
Vam5 5 n10 dc 0
Rport5 n10 0 50 noise=0
Vam6 6 n12 dc 0
Rport6 n12 0 50 noise=0
Vam7 7 n14 dc 0
Rport7 n14 0 50 noise=0
Vam8 8 n16 dc 0
Rport8 n16 0 50 noise=0

Fi1 0 ni1 Vam1 50
Gi1 0 ni1 1 0 1
Rt1 ni1 0 1 noise=0
Fi2 0 ni2 Vam2 50
Gi2 0 ni2 2 0 1
Rt2 ni2 0 1 noise=0
Fi3 0 ni3 Vam3 50
Gi3 0 ni3 3 0 1
Rt3 ni3 0 1 noise=0
Fi4 0 ni4 Vam4 50
Gi4 0 ni4 4 0 1
Rt4 ni4 0 1 noise=0
Fi5 0 ni5 Vam5 50
Gi5 0 ni5 5 0 1
Rt5 ni5 0 1 noise=0
Fi6 0 ni6 Vam6 50
Gi6 0 ni6 6 0 1
Rt6 ni6 0 1 noise=0
Fi7 0 ni7 Vam7 50
Gi7 0 ni7 7 0 1
Rt7 ni7 0 1 noise=0
Fi8 0 ni8 Vam8 50
Gi8 0 ni8 8 0 1
Rt8 ni8 0 1 noise=0

Ca1 ns1 0 1e-12
Ra1 ns1 0 0.0599459941272 noise=0
Ca2 ns2 0 1e-12
Ra2 ns2 0 0.714606679535 noise=0
Ca3 ns3 0 1e-12
Ra3 ns3 0 1.19287160881 noise=0
Ca4 ns4 0 1e-12
Ca5 ns5 0 1e-12
Ra4 ns4 0 26.828727021 noise=0
Ra5 ns5 0 26.828727021 noise=0
Ga4 ns4 0 ns5 0 -0.518048785893
Ga5 ns5 0 ns4 0 0.518048785893
Ca6 ns6 0 1e-12
Ca7 ns7 0 1e-12
Ra6 ns6 0 90.0406412861 noise=0
Ra7 ns7 0 90.0406412861 noise=0
Ga6 ns6 0 ns7 0 -0.487119257249
Ga7 ns7 0 ns6 0 0.487119257249
Ca8 ns8 0 1e-12
Ca9 ns9 0 1e-12
Ra8 ns8 0 29.4872472308 noise=0
Ra9 ns9 0 29.4872472308 noise=0
Ga8 ns8 0 ns9 0 -0.46382169076
Ga9 ns9 0 ns8 0 0.46382169076
Ca10 ns10 0 1e-12
Ca11 ns11 0 1e-12
Ra10 ns10 0 31.4880587202 noise=0
Ra11 ns11 0 31.4880587202 noise=0
Ga10 ns10 0 ns11 0 -0.426117672518
Ga11 ns11 0 ns10 0 0.426117672518
Ca12 ns12 0 1e-12
Ca13 ns13 0 1e-12
Ra12 ns12 0 19.1952084606 noise=0
Ra13 ns13 0 19.1952084606 noise=0
Ga12 ns12 0 ns13 0 -0.398679757461
Ga13 ns13 0 ns12 0 0.398679757461
Ca14 ns14 0 1e-12
Ca15 ns15 0 1e-12
Ra14 ns14 0 38.9735617239 noise=0
Ra15 ns15 0 38.9735617239 noise=0
Ga14 ns14 0 ns15 0 -0.385574664967
Ga15 ns15 0 ns14 0 0.385574664967
Ca16 ns16 0 1e-12
Ca17 ns17 0 1e-12
Ra16 ns16 0 23.3700179636 noise=0
Ra17 ns17 0 23.3700179636 noise=0
Ga16 ns16 0 ns17 0 -0.32363874977
Ga17 ns17 0 ns16 0 0.32363874977
Ca18 ns18 0 1e-12
Ca19 ns19 0 1e-12
Ra18 ns18 0 13.6366308475 noise=0
Ra19 ns19 0 13.6366308475 noise=0
Ga18 ns18 0 ns19 0 -0.2818027486
Ga19 ns19 0 ns18 0 0.2818027486
Ca20 ns20 0 1e-12
Ca21 ns21 0 1e-12
Ra20 ns20 0 36.4720266288 noise=0
Ra21 ns21 0 36.4720266288 noise=0
Ga20 ns20 0 ns21 0 -0.291418716466
Ga21 ns21 0 ns20 0 0.291418716466
Ca22 ns22 0 1e-12
Ca23 ns23 0 1e-12
Ra22 ns22 0 22.570362028 noise=0
Ra23 ns23 0 22.570362028 noise=0
Ga22 ns22 0 ns23 0 -0.219789949348
Ga23 ns23 0 ns22 0 0.219789949348
Ca24 ns24 0 1e-12
Ca25 ns25 0 1e-12
Ra24 ns24 0 35.3564229023 noise=0
Ra25 ns25 0 35.3564229023 noise=0
Ga24 ns24 0 ns25 0 -0.196387080388
Ga25 ns25 0 ns24 0 0.196387080388
Ca26 ns26 0 1e-12
Ca27 ns27 0 1e-12
Ra26 ns26 0 19.3225792178 noise=0
Ra27 ns27 0 19.3225792178 noise=0
Ga26 ns26 0 ns27 0 -0.158984338989
Ga27 ns27 0 ns26 0 0.158984338989
Ca28 ns28 0 1e-12
Ca29 ns29 0 1e-12
Ra28 ns28 0 22.3171225035 noise=0
Ra29 ns29 0 22.3171225035 noise=0
Ga28 ns28 0 ns29 0 -0.112121022154
Ga29 ns29 0 ns28 0 0.112121022154
Ca30 ns30 0 1e-12
Ca31 ns31 0 1e-12
Ra30 ns30 0 35.6994407039 noise=0
Ra31 ns31 0 35.6994407039 noise=0
Ga30 ns30 0 ns31 0 -0.097312790312
Ga31 ns31 0 ns30 0 0.097312790312
Ca32 ns32 0 1e-12
Ca33 ns33 0 1e-12
Ra32 ns32 0 21.0761624353 noise=0
Ra33 ns33 0 21.0761624353 noise=0
Ga32 ns32 0 ns33 0 -0.0785079694625
Ga33 ns33 0 ns32 0 0.0785079694625
Ca34 ns34 0 1e-12
Ca35 ns35 0 1e-12
Ra34 ns34 0 6461.79173097 noise=0
Ra35 ns35 0 6461.79173097 noise=0
Ga34 ns34 0 ns35 0 -0.0625345296116
Ga35 ns35 0 ns34 0 0.0625345296116
Ca36 ns36 0 1e-12
Ca37 ns37 0 1e-12
Ra36 ns36 0 26.8817745081 noise=0
Ra37 ns37 0 26.8817745081 noise=0
Ga36 ns36 0 ns37 0 -0.016065358588
Ga37 ns37 0 ns36 0 0.016065358588
Ca38 ns38 0 1e-12
Ra38 ns38 0 30.8646103733 noise=0
Ca39 ns39 0 1e-12
Ra39 ns39 0 24137.9690629 noise=0
Ca40 ns40 0 1e-12
Ca41 ns41 0 1e-12
Ra40 ns40 0 3536.160082 noise=0
Ra41 ns41 0 3536.160082 noise=0
Ga40 ns40 0 ns41 0 -0.000237869767882
Ga41 ns41 0 ns40 0 0.000237869767882
Ca42 ns42 0 1e-12
Ra42 ns42 0 0.0599459941272 noise=0
Ca43 ns43 0 1e-12
Ra43 ns43 0 0.714606679535 noise=0
Ca44 ns44 0 1e-12
Ra44 ns44 0 1.19287160881 noise=0
Ca45 ns45 0 1e-12
Ca46 ns46 0 1e-12
Ra45 ns45 0 26.828727021 noise=0
Ra46 ns46 0 26.828727021 noise=0
Ga45 ns45 0 ns46 0 -0.518048785893
Ga46 ns46 0 ns45 0 0.518048785893
Ca47 ns47 0 1e-12
Ca48 ns48 0 1e-12
Ra47 ns47 0 90.0406412861 noise=0
Ra48 ns48 0 90.0406412861 noise=0
Ga47 ns47 0 ns48 0 -0.487119257249
Ga48 ns48 0 ns47 0 0.487119257249
Ca49 ns49 0 1e-12
Ca50 ns50 0 1e-12
Ra49 ns49 0 29.4872472308 noise=0
Ra50 ns50 0 29.4872472308 noise=0
Ga49 ns49 0 ns50 0 -0.46382169076
Ga50 ns50 0 ns49 0 0.46382169076
Ca51 ns51 0 1e-12
Ca52 ns52 0 1e-12
Ra51 ns51 0 31.4880587202 noise=0
Ra52 ns52 0 31.4880587202 noise=0
Ga51 ns51 0 ns52 0 -0.426117672518
Ga52 ns52 0 ns51 0 0.426117672518
Ca53 ns53 0 1e-12
Ca54 ns54 0 1e-12
Ra53 ns53 0 19.1952084606 noise=0
Ra54 ns54 0 19.1952084606 noise=0
Ga53 ns53 0 ns54 0 -0.398679757461
Ga54 ns54 0 ns53 0 0.398679757461
Ca55 ns55 0 1e-12
Ca56 ns56 0 1e-12
Ra55 ns55 0 38.9735617239 noise=0
Ra56 ns56 0 38.9735617239 noise=0
Ga55 ns55 0 ns56 0 -0.385574664967
Ga56 ns56 0 ns55 0 0.385574664967
Ca57 ns57 0 1e-12
Ca58 ns58 0 1e-12
Ra57 ns57 0 23.3700179636 noise=0
Ra58 ns58 0 23.3700179636 noise=0
Ga57 ns57 0 ns58 0 -0.32363874977
Ga58 ns58 0 ns57 0 0.32363874977
Ca59 ns59 0 1e-12
Ca60 ns60 0 1e-12
Ra59 ns59 0 13.6366308475 noise=0
Ra60 ns60 0 13.6366308475 noise=0
Ga59 ns59 0 ns60 0 -0.2818027486
Ga60 ns60 0 ns59 0 0.2818027486
Ca61 ns61 0 1e-12
Ca62 ns62 0 1e-12
Ra61 ns61 0 36.4720266288 noise=0
Ra62 ns62 0 36.4720266288 noise=0
Ga61 ns61 0 ns62 0 -0.291418716466
Ga62 ns62 0 ns61 0 0.291418716466
Ca63 ns63 0 1e-12
Ca64 ns64 0 1e-12
Ra63 ns63 0 22.570362028 noise=0
Ra64 ns64 0 22.570362028 noise=0
Ga63 ns63 0 ns64 0 -0.219789949348
Ga64 ns64 0 ns63 0 0.219789949348
Ca65 ns65 0 1e-12
Ca66 ns66 0 1e-12
Ra65 ns65 0 35.3564229023 noise=0
Ra66 ns66 0 35.3564229023 noise=0
Ga65 ns65 0 ns66 0 -0.196387080388
Ga66 ns66 0 ns65 0 0.196387080388
Ca67 ns67 0 1e-12
Ca68 ns68 0 1e-12
Ra67 ns67 0 19.3225792178 noise=0
Ra68 ns68 0 19.3225792178 noise=0
Ga67 ns67 0 ns68 0 -0.158984338989
Ga68 ns68 0 ns67 0 0.158984338989
Ca69 ns69 0 1e-12
Ca70 ns70 0 1e-12
Ra69 ns69 0 22.3171225035 noise=0
Ra70 ns70 0 22.3171225035 noise=0
Ga69 ns69 0 ns70 0 -0.112121022154
Ga70 ns70 0 ns69 0 0.112121022154
Ca71 ns71 0 1e-12
Ca72 ns72 0 1e-12
Ra71 ns71 0 35.6994407039 noise=0
Ra72 ns72 0 35.6994407039 noise=0
Ga71 ns71 0 ns72 0 -0.097312790312
Ga72 ns72 0 ns71 0 0.097312790312
Ca73 ns73 0 1e-12
Ca74 ns74 0 1e-12
Ra73 ns73 0 21.0761624353 noise=0
Ra74 ns74 0 21.0761624353 noise=0
Ga73 ns73 0 ns74 0 -0.0785079694625
Ga74 ns74 0 ns73 0 0.0785079694625
Ca75 ns75 0 1e-12
Ca76 ns76 0 1e-12
Ra75 ns75 0 6461.79173097 noise=0
Ra76 ns76 0 6461.79173097 noise=0
Ga75 ns75 0 ns76 0 -0.0625345296116
Ga76 ns76 0 ns75 0 0.0625345296116
Ca77 ns77 0 1e-12
Ca78 ns78 0 1e-12
Ra77 ns77 0 26.8817745081 noise=0
Ra78 ns78 0 26.8817745081 noise=0
Ga77 ns77 0 ns78 0 -0.016065358588
Ga78 ns78 0 ns77 0 0.016065358588
Ca79 ns79 0 1e-12
Ra79 ns79 0 30.8646103733 noise=0
Ca80 ns80 0 1e-12
Ra80 ns80 0 24137.9690629 noise=0
Ca81 ns81 0 1e-12
Ca82 ns82 0 1e-12
Ra81 ns81 0 3536.160082 noise=0
Ra82 ns82 0 3536.160082 noise=0
Ga81 ns81 0 ns82 0 -0.000237869767882
Ga82 ns82 0 ns81 0 0.000237869767882
Ca83 ns83 0 1e-12
Ra83 ns83 0 0.0599459941272 noise=0
Ca84 ns84 0 1e-12
Ra84 ns84 0 0.714606679535 noise=0
Ca85 ns85 0 1e-12
Ra85 ns85 0 1.19287160881 noise=0
Ca86 ns86 0 1e-12
Ca87 ns87 0 1e-12
Ra86 ns86 0 26.828727021 noise=0
Ra87 ns87 0 26.828727021 noise=0
Ga86 ns86 0 ns87 0 -0.518048785893
Ga87 ns87 0 ns86 0 0.518048785893
Ca88 ns88 0 1e-12
Ca89 ns89 0 1e-12
Ra88 ns88 0 90.0406412861 noise=0
Ra89 ns89 0 90.0406412861 noise=0
Ga88 ns88 0 ns89 0 -0.487119257249
Ga89 ns89 0 ns88 0 0.487119257249
Ca90 ns90 0 1e-12
Ca91 ns91 0 1e-12
Ra90 ns90 0 29.4872472308 noise=0
Ra91 ns91 0 29.4872472308 noise=0
Ga90 ns90 0 ns91 0 -0.46382169076
Ga91 ns91 0 ns90 0 0.46382169076
Ca92 ns92 0 1e-12
Ca93 ns93 0 1e-12
Ra92 ns92 0 31.4880587202 noise=0
Ra93 ns93 0 31.4880587202 noise=0
Ga92 ns92 0 ns93 0 -0.426117672518
Ga93 ns93 0 ns92 0 0.426117672518
Ca94 ns94 0 1e-12
Ca95 ns95 0 1e-12
Ra94 ns94 0 19.1952084606 noise=0
Ra95 ns95 0 19.1952084606 noise=0
Ga94 ns94 0 ns95 0 -0.398679757461
Ga95 ns95 0 ns94 0 0.398679757461
Ca96 ns96 0 1e-12
Ca97 ns97 0 1e-12
Ra96 ns96 0 38.9735617239 noise=0
Ra97 ns97 0 38.9735617239 noise=0
Ga96 ns96 0 ns97 0 -0.385574664967
Ga97 ns97 0 ns96 0 0.385574664967
Ca98 ns98 0 1e-12
Ca99 ns99 0 1e-12
Ra98 ns98 0 23.3700179636 noise=0
Ra99 ns99 0 23.3700179636 noise=0
Ga98 ns98 0 ns99 0 -0.32363874977
Ga99 ns99 0 ns98 0 0.32363874977
Ca100 ns100 0 1e-12
Ca101 ns101 0 1e-12
Ra100 ns100 0 13.6366308475 noise=0
Ra101 ns101 0 13.6366308475 noise=0
Ga100 ns100 0 ns101 0 -0.2818027486
Ga101 ns101 0 ns100 0 0.2818027486
Ca102 ns102 0 1e-12
Ca103 ns103 0 1e-12
Ra102 ns102 0 36.4720266288 noise=0
Ra103 ns103 0 36.4720266288 noise=0
Ga102 ns102 0 ns103 0 -0.291418716466
Ga103 ns103 0 ns102 0 0.291418716466
Ca104 ns104 0 1e-12
Ca105 ns105 0 1e-12
Ra104 ns104 0 22.570362028 noise=0
Ra105 ns105 0 22.570362028 noise=0
Ga104 ns104 0 ns105 0 -0.219789949348
Ga105 ns105 0 ns104 0 0.219789949348
Ca106 ns106 0 1e-12
Ca107 ns107 0 1e-12
Ra106 ns106 0 35.3564229023 noise=0
Ra107 ns107 0 35.3564229023 noise=0
Ga106 ns106 0 ns107 0 -0.196387080388
Ga107 ns107 0 ns106 0 0.196387080388
Ca108 ns108 0 1e-12
Ca109 ns109 0 1e-12
Ra108 ns108 0 19.3225792178 noise=0
Ra109 ns109 0 19.3225792178 noise=0
Ga108 ns108 0 ns109 0 -0.158984338989
Ga109 ns109 0 ns108 0 0.158984338989
Ca110 ns110 0 1e-12
Ca111 ns111 0 1e-12
Ra110 ns110 0 22.3171225035 noise=0
Ra111 ns111 0 22.3171225035 noise=0
Ga110 ns110 0 ns111 0 -0.112121022154
Ga111 ns111 0 ns110 0 0.112121022154
Ca112 ns112 0 1e-12
Ca113 ns113 0 1e-12
Ra112 ns112 0 35.6994407039 noise=0
Ra113 ns113 0 35.6994407039 noise=0
Ga112 ns112 0 ns113 0 -0.097312790312
Ga113 ns113 0 ns112 0 0.097312790312
Ca114 ns114 0 1e-12
Ca115 ns115 0 1e-12
Ra114 ns114 0 21.0761624353 noise=0
Ra115 ns115 0 21.0761624353 noise=0
Ga114 ns114 0 ns115 0 -0.0785079694625
Ga115 ns115 0 ns114 0 0.0785079694625
Ca116 ns116 0 1e-12
Ca117 ns117 0 1e-12
Ra116 ns116 0 6461.79173097 noise=0
Ra117 ns117 0 6461.79173097 noise=0
Ga116 ns116 0 ns117 0 -0.0625345296116
Ga117 ns117 0 ns116 0 0.0625345296116
Ca118 ns118 0 1e-12
Ca119 ns119 0 1e-12
Ra118 ns118 0 26.8817745081 noise=0
Ra119 ns119 0 26.8817745081 noise=0
Ga118 ns118 0 ns119 0 -0.016065358588
Ga119 ns119 0 ns118 0 0.016065358588
Ca120 ns120 0 1e-12
Ra120 ns120 0 30.8646103733 noise=0
Ca121 ns121 0 1e-12
Ra121 ns121 0 24137.9690629 noise=0
Ca122 ns122 0 1e-12
Ca123 ns123 0 1e-12
Ra122 ns122 0 3536.160082 noise=0
Ra123 ns123 0 3536.160082 noise=0
Ga122 ns122 0 ns123 0 -0.000237869767882
Ga123 ns123 0 ns122 0 0.000237869767882
Ca124 ns124 0 1e-12
Ra124 ns124 0 0.0599459941272 noise=0
Ca125 ns125 0 1e-12
Ra125 ns125 0 0.714606679535 noise=0
Ca126 ns126 0 1e-12
Ra126 ns126 0 1.19287160881 noise=0
Ca127 ns127 0 1e-12
Ca128 ns128 0 1e-12
Ra127 ns127 0 26.828727021 noise=0
Ra128 ns128 0 26.828727021 noise=0
Ga127 ns127 0 ns128 0 -0.518048785893
Ga128 ns128 0 ns127 0 0.518048785893
Ca129 ns129 0 1e-12
Ca130 ns130 0 1e-12
Ra129 ns129 0 90.0406412861 noise=0
Ra130 ns130 0 90.0406412861 noise=0
Ga129 ns129 0 ns130 0 -0.487119257249
Ga130 ns130 0 ns129 0 0.487119257249
Ca131 ns131 0 1e-12
Ca132 ns132 0 1e-12
Ra131 ns131 0 29.4872472308 noise=0
Ra132 ns132 0 29.4872472308 noise=0
Ga131 ns131 0 ns132 0 -0.46382169076
Ga132 ns132 0 ns131 0 0.46382169076
Ca133 ns133 0 1e-12
Ca134 ns134 0 1e-12
Ra133 ns133 0 31.4880587202 noise=0
Ra134 ns134 0 31.4880587202 noise=0
Ga133 ns133 0 ns134 0 -0.426117672518
Ga134 ns134 0 ns133 0 0.426117672518
Ca135 ns135 0 1e-12
Ca136 ns136 0 1e-12
Ra135 ns135 0 19.1952084606 noise=0
Ra136 ns136 0 19.1952084606 noise=0
Ga135 ns135 0 ns136 0 -0.398679757461
Ga136 ns136 0 ns135 0 0.398679757461
Ca137 ns137 0 1e-12
Ca138 ns138 0 1e-12
Ra137 ns137 0 38.9735617239 noise=0
Ra138 ns138 0 38.9735617239 noise=0
Ga137 ns137 0 ns138 0 -0.385574664967
Ga138 ns138 0 ns137 0 0.385574664967
Ca139 ns139 0 1e-12
Ca140 ns140 0 1e-12
Ra139 ns139 0 23.3700179636 noise=0
Ra140 ns140 0 23.3700179636 noise=0
Ga139 ns139 0 ns140 0 -0.32363874977
Ga140 ns140 0 ns139 0 0.32363874977
Ca141 ns141 0 1e-12
Ca142 ns142 0 1e-12
Ra141 ns141 0 13.6366308475 noise=0
Ra142 ns142 0 13.6366308475 noise=0
Ga141 ns141 0 ns142 0 -0.2818027486
Ga142 ns142 0 ns141 0 0.2818027486
Ca143 ns143 0 1e-12
Ca144 ns144 0 1e-12
Ra143 ns143 0 36.4720266288 noise=0
Ra144 ns144 0 36.4720266288 noise=0
Ga143 ns143 0 ns144 0 -0.291418716466
Ga144 ns144 0 ns143 0 0.291418716466
Ca145 ns145 0 1e-12
Ca146 ns146 0 1e-12
Ra145 ns145 0 22.570362028 noise=0
Ra146 ns146 0 22.570362028 noise=0
Ga145 ns145 0 ns146 0 -0.219789949348
Ga146 ns146 0 ns145 0 0.219789949348
Ca147 ns147 0 1e-12
Ca148 ns148 0 1e-12
Ra147 ns147 0 35.3564229023 noise=0
Ra148 ns148 0 35.3564229023 noise=0
Ga147 ns147 0 ns148 0 -0.196387080388
Ga148 ns148 0 ns147 0 0.196387080388
Ca149 ns149 0 1e-12
Ca150 ns150 0 1e-12
Ra149 ns149 0 19.3225792178 noise=0
Ra150 ns150 0 19.3225792178 noise=0
Ga149 ns149 0 ns150 0 -0.158984338989
Ga150 ns150 0 ns149 0 0.158984338989
Ca151 ns151 0 1e-12
Ca152 ns152 0 1e-12
Ra151 ns151 0 22.3171225035 noise=0
Ra152 ns152 0 22.3171225035 noise=0
Ga151 ns151 0 ns152 0 -0.112121022154
Ga152 ns152 0 ns151 0 0.112121022154
Ca153 ns153 0 1e-12
Ca154 ns154 0 1e-12
Ra153 ns153 0 35.6994407039 noise=0
Ra154 ns154 0 35.6994407039 noise=0
Ga153 ns153 0 ns154 0 -0.097312790312
Ga154 ns154 0 ns153 0 0.097312790312
Ca155 ns155 0 1e-12
Ca156 ns156 0 1e-12
Ra155 ns155 0 21.0761624353 noise=0
Ra156 ns156 0 21.0761624353 noise=0
Ga155 ns155 0 ns156 0 -0.0785079694625
Ga156 ns156 0 ns155 0 0.0785079694625
Ca157 ns157 0 1e-12
Ca158 ns158 0 1e-12
Ra157 ns157 0 6461.79173097 noise=0
Ra158 ns158 0 6461.79173097 noise=0
Ga157 ns157 0 ns158 0 -0.0625345296116
Ga158 ns158 0 ns157 0 0.0625345296116
Ca159 ns159 0 1e-12
Ca160 ns160 0 1e-12
Ra159 ns159 0 26.8817745081 noise=0
Ra160 ns160 0 26.8817745081 noise=0
Ga159 ns159 0 ns160 0 -0.016065358588
Ga160 ns160 0 ns159 0 0.016065358588
Ca161 ns161 0 1e-12
Ra161 ns161 0 30.8646103733 noise=0
Ca162 ns162 0 1e-12
Ra162 ns162 0 24137.9690629 noise=0
Ca163 ns163 0 1e-12
Ca164 ns164 0 1e-12
Ra163 ns163 0 3536.160082 noise=0
Ra164 ns164 0 3536.160082 noise=0
Ga163 ns163 0 ns164 0 -0.000237869767882
Ga164 ns164 0 ns163 0 0.000237869767882
Ca165 ns165 0 1e-12
Ra165 ns165 0 0.0599459941272 noise=0
Ca166 ns166 0 1e-12
Ra166 ns166 0 0.714606679535 noise=0
Ca167 ns167 0 1e-12
Ra167 ns167 0 1.19287160881 noise=0
Ca168 ns168 0 1e-12
Ca169 ns169 0 1e-12
Ra168 ns168 0 26.828727021 noise=0
Ra169 ns169 0 26.828727021 noise=0
Ga168 ns168 0 ns169 0 -0.518048785893
Ga169 ns169 0 ns168 0 0.518048785893
Ca170 ns170 0 1e-12
Ca171 ns171 0 1e-12
Ra170 ns170 0 90.0406412861 noise=0
Ra171 ns171 0 90.0406412861 noise=0
Ga170 ns170 0 ns171 0 -0.487119257249
Ga171 ns171 0 ns170 0 0.487119257249
Ca172 ns172 0 1e-12
Ca173 ns173 0 1e-12
Ra172 ns172 0 29.4872472308 noise=0
Ra173 ns173 0 29.4872472308 noise=0
Ga172 ns172 0 ns173 0 -0.46382169076
Ga173 ns173 0 ns172 0 0.46382169076
Ca174 ns174 0 1e-12
Ca175 ns175 0 1e-12
Ra174 ns174 0 31.4880587202 noise=0
Ra175 ns175 0 31.4880587202 noise=0
Ga174 ns174 0 ns175 0 -0.426117672518
Ga175 ns175 0 ns174 0 0.426117672518
Ca176 ns176 0 1e-12
Ca177 ns177 0 1e-12
Ra176 ns176 0 19.1952084606 noise=0
Ra177 ns177 0 19.1952084606 noise=0
Ga176 ns176 0 ns177 0 -0.398679757461
Ga177 ns177 0 ns176 0 0.398679757461
Ca178 ns178 0 1e-12
Ca179 ns179 0 1e-12
Ra178 ns178 0 38.9735617239 noise=0
Ra179 ns179 0 38.9735617239 noise=0
Ga178 ns178 0 ns179 0 -0.385574664967
Ga179 ns179 0 ns178 0 0.385574664967
Ca180 ns180 0 1e-12
Ca181 ns181 0 1e-12
Ra180 ns180 0 23.3700179636 noise=0
Ra181 ns181 0 23.3700179636 noise=0
Ga180 ns180 0 ns181 0 -0.32363874977
Ga181 ns181 0 ns180 0 0.32363874977
Ca182 ns182 0 1e-12
Ca183 ns183 0 1e-12
Ra182 ns182 0 13.6366308475 noise=0
Ra183 ns183 0 13.6366308475 noise=0
Ga182 ns182 0 ns183 0 -0.2818027486
Ga183 ns183 0 ns182 0 0.2818027486
Ca184 ns184 0 1e-12
Ca185 ns185 0 1e-12
Ra184 ns184 0 36.4720266288 noise=0
Ra185 ns185 0 36.4720266288 noise=0
Ga184 ns184 0 ns185 0 -0.291418716466
Ga185 ns185 0 ns184 0 0.291418716466
Ca186 ns186 0 1e-12
Ca187 ns187 0 1e-12
Ra186 ns186 0 22.570362028 noise=0
Ra187 ns187 0 22.570362028 noise=0
Ga186 ns186 0 ns187 0 -0.219789949348
Ga187 ns187 0 ns186 0 0.219789949348
Ca188 ns188 0 1e-12
Ca189 ns189 0 1e-12
Ra188 ns188 0 35.3564229023 noise=0
Ra189 ns189 0 35.3564229023 noise=0
Ga188 ns188 0 ns189 0 -0.196387080388
Ga189 ns189 0 ns188 0 0.196387080388
Ca190 ns190 0 1e-12
Ca191 ns191 0 1e-12
Ra190 ns190 0 19.3225792178 noise=0
Ra191 ns191 0 19.3225792178 noise=0
Ga190 ns190 0 ns191 0 -0.158984338989
Ga191 ns191 0 ns190 0 0.158984338989
Ca192 ns192 0 1e-12
Ca193 ns193 0 1e-12
Ra192 ns192 0 22.3171225035 noise=0
Ra193 ns193 0 22.3171225035 noise=0
Ga192 ns192 0 ns193 0 -0.112121022154
Ga193 ns193 0 ns192 0 0.112121022154
Ca194 ns194 0 1e-12
Ca195 ns195 0 1e-12
Ra194 ns194 0 35.6994407039 noise=0
Ra195 ns195 0 35.6994407039 noise=0
Ga194 ns194 0 ns195 0 -0.097312790312
Ga195 ns195 0 ns194 0 0.097312790312
Ca196 ns196 0 1e-12
Ca197 ns197 0 1e-12
Ra196 ns196 0 21.0761624353 noise=0
Ra197 ns197 0 21.0761624353 noise=0
Ga196 ns196 0 ns197 0 -0.0785079694625
Ga197 ns197 0 ns196 0 0.0785079694625
Ca198 ns198 0 1e-12
Ca199 ns199 0 1e-12
Ra198 ns198 0 6461.79173097 noise=0
Ra199 ns199 0 6461.79173097 noise=0
Ga198 ns198 0 ns199 0 -0.0625345296116
Ga199 ns199 0 ns198 0 0.0625345296116
Ca200 ns200 0 1e-12
Ca201 ns201 0 1e-12
Ra200 ns200 0 26.8817745081 noise=0
Ra201 ns201 0 26.8817745081 noise=0
Ga200 ns200 0 ns201 0 -0.016065358588
Ga201 ns201 0 ns200 0 0.016065358588
Ca202 ns202 0 1e-12
Ra202 ns202 0 30.8646103733 noise=0
Ca203 ns203 0 1e-12
Ra203 ns203 0 24137.9690629 noise=0
Ca204 ns204 0 1e-12
Ca205 ns205 0 1e-12
Ra204 ns204 0 3536.160082 noise=0
Ra205 ns205 0 3536.160082 noise=0
Ga204 ns204 0 ns205 0 -0.000237869767882
Ga205 ns205 0 ns204 0 0.000237869767882
Ca206 ns206 0 1e-12
Ra206 ns206 0 0.0599459941272 noise=0
Ca207 ns207 0 1e-12
Ra207 ns207 0 0.714606679535 noise=0
Ca208 ns208 0 1e-12
Ra208 ns208 0 1.19287160881 noise=0
Ca209 ns209 0 1e-12
Ca210 ns210 0 1e-12
Ra209 ns209 0 26.828727021 noise=0
Ra210 ns210 0 26.828727021 noise=0
Ga209 ns209 0 ns210 0 -0.518048785893
Ga210 ns210 0 ns209 0 0.518048785893
Ca211 ns211 0 1e-12
Ca212 ns212 0 1e-12
Ra211 ns211 0 90.0406412861 noise=0
Ra212 ns212 0 90.0406412861 noise=0
Ga211 ns211 0 ns212 0 -0.487119257249
Ga212 ns212 0 ns211 0 0.487119257249
Ca213 ns213 0 1e-12
Ca214 ns214 0 1e-12
Ra213 ns213 0 29.4872472308 noise=0
Ra214 ns214 0 29.4872472308 noise=0
Ga213 ns213 0 ns214 0 -0.46382169076
Ga214 ns214 0 ns213 0 0.46382169076
Ca215 ns215 0 1e-12
Ca216 ns216 0 1e-12
Ra215 ns215 0 31.4880587202 noise=0
Ra216 ns216 0 31.4880587202 noise=0
Ga215 ns215 0 ns216 0 -0.426117672518
Ga216 ns216 0 ns215 0 0.426117672518
Ca217 ns217 0 1e-12
Ca218 ns218 0 1e-12
Ra217 ns217 0 19.1952084606 noise=0
Ra218 ns218 0 19.1952084606 noise=0
Ga217 ns217 0 ns218 0 -0.398679757461
Ga218 ns218 0 ns217 0 0.398679757461
Ca219 ns219 0 1e-12
Ca220 ns220 0 1e-12
Ra219 ns219 0 38.9735617239 noise=0
Ra220 ns220 0 38.9735617239 noise=0
Ga219 ns219 0 ns220 0 -0.385574664967
Ga220 ns220 0 ns219 0 0.385574664967
Ca221 ns221 0 1e-12
Ca222 ns222 0 1e-12
Ra221 ns221 0 23.3700179636 noise=0
Ra222 ns222 0 23.3700179636 noise=0
Ga221 ns221 0 ns222 0 -0.32363874977
Ga222 ns222 0 ns221 0 0.32363874977
Ca223 ns223 0 1e-12
Ca224 ns224 0 1e-12
Ra223 ns223 0 13.6366308475 noise=0
Ra224 ns224 0 13.6366308475 noise=0
Ga223 ns223 0 ns224 0 -0.2818027486
Ga224 ns224 0 ns223 0 0.2818027486
Ca225 ns225 0 1e-12
Ca226 ns226 0 1e-12
Ra225 ns225 0 36.4720266288 noise=0
Ra226 ns226 0 36.4720266288 noise=0
Ga225 ns225 0 ns226 0 -0.291418716466
Ga226 ns226 0 ns225 0 0.291418716466
Ca227 ns227 0 1e-12
Ca228 ns228 0 1e-12
Ra227 ns227 0 22.570362028 noise=0
Ra228 ns228 0 22.570362028 noise=0
Ga227 ns227 0 ns228 0 -0.219789949348
Ga228 ns228 0 ns227 0 0.219789949348
Ca229 ns229 0 1e-12
Ca230 ns230 0 1e-12
Ra229 ns229 0 35.3564229023 noise=0
Ra230 ns230 0 35.3564229023 noise=0
Ga229 ns229 0 ns230 0 -0.196387080388
Ga230 ns230 0 ns229 0 0.196387080388
Ca231 ns231 0 1e-12
Ca232 ns232 0 1e-12
Ra231 ns231 0 19.3225792178 noise=0
Ra232 ns232 0 19.3225792178 noise=0
Ga231 ns231 0 ns232 0 -0.158984338989
Ga232 ns232 0 ns231 0 0.158984338989
Ca233 ns233 0 1e-12
Ca234 ns234 0 1e-12
Ra233 ns233 0 22.3171225035 noise=0
Ra234 ns234 0 22.3171225035 noise=0
Ga233 ns233 0 ns234 0 -0.112121022154
Ga234 ns234 0 ns233 0 0.112121022154
Ca235 ns235 0 1e-12
Ca236 ns236 0 1e-12
Ra235 ns235 0 35.6994407039 noise=0
Ra236 ns236 0 35.6994407039 noise=0
Ga235 ns235 0 ns236 0 -0.097312790312
Ga236 ns236 0 ns235 0 0.097312790312
Ca237 ns237 0 1e-12
Ca238 ns238 0 1e-12
Ra237 ns237 0 21.0761624353 noise=0
Ra238 ns238 0 21.0761624353 noise=0
Ga237 ns237 0 ns238 0 -0.0785079694625
Ga238 ns238 0 ns237 0 0.0785079694625
Ca239 ns239 0 1e-12
Ca240 ns240 0 1e-12
Ra239 ns239 0 6461.79173097 noise=0
Ra240 ns240 0 6461.79173097 noise=0
Ga239 ns239 0 ns240 0 -0.0625345296116
Ga240 ns240 0 ns239 0 0.0625345296116
Ca241 ns241 0 1e-12
Ca242 ns242 0 1e-12
Ra241 ns241 0 26.8817745081 noise=0
Ra242 ns242 0 26.8817745081 noise=0
Ga241 ns241 0 ns242 0 -0.016065358588
Ga242 ns242 0 ns241 0 0.016065358588
Ca243 ns243 0 1e-12
Ra243 ns243 0 30.8646103733 noise=0
Ca244 ns244 0 1e-12
Ra244 ns244 0 24137.9690629 noise=0
Ca245 ns245 0 1e-12
Ca246 ns246 0 1e-12
Ra245 ns245 0 3536.160082 noise=0
Ra246 ns246 0 3536.160082 noise=0
Ga245 ns245 0 ns246 0 -0.000237869767882
Ga246 ns246 0 ns245 0 0.000237869767882
Ca247 ns247 0 1e-12
Ra247 ns247 0 0.0599459941272 noise=0
Ca248 ns248 0 1e-12
Ra248 ns248 0 0.714606679535 noise=0
Ca249 ns249 0 1e-12
Ra249 ns249 0 1.19287160881 noise=0
Ca250 ns250 0 1e-12
Ca251 ns251 0 1e-12
Ra250 ns250 0 26.828727021 noise=0
Ra251 ns251 0 26.828727021 noise=0
Ga250 ns250 0 ns251 0 -0.518048785893
Ga251 ns251 0 ns250 0 0.518048785893
Ca252 ns252 0 1e-12
Ca253 ns253 0 1e-12
Ra252 ns252 0 90.0406412861 noise=0
Ra253 ns253 0 90.0406412861 noise=0
Ga252 ns252 0 ns253 0 -0.487119257249
Ga253 ns253 0 ns252 0 0.487119257249
Ca254 ns254 0 1e-12
Ca255 ns255 0 1e-12
Ra254 ns254 0 29.4872472308 noise=0
Ra255 ns255 0 29.4872472308 noise=0
Ga254 ns254 0 ns255 0 -0.46382169076
Ga255 ns255 0 ns254 0 0.46382169076
Ca256 ns256 0 1e-12
Ca257 ns257 0 1e-12
Ra256 ns256 0 31.4880587202 noise=0
Ra257 ns257 0 31.4880587202 noise=0
Ga256 ns256 0 ns257 0 -0.426117672518
Ga257 ns257 0 ns256 0 0.426117672518
Ca258 ns258 0 1e-12
Ca259 ns259 0 1e-12
Ra258 ns258 0 19.1952084606 noise=0
Ra259 ns259 0 19.1952084606 noise=0
Ga258 ns258 0 ns259 0 -0.398679757461
Ga259 ns259 0 ns258 0 0.398679757461
Ca260 ns260 0 1e-12
Ca261 ns261 0 1e-12
Ra260 ns260 0 38.9735617239 noise=0
Ra261 ns261 0 38.9735617239 noise=0
Ga260 ns260 0 ns261 0 -0.385574664967
Ga261 ns261 0 ns260 0 0.385574664967
Ca262 ns262 0 1e-12
Ca263 ns263 0 1e-12
Ra262 ns262 0 23.3700179636 noise=0
Ra263 ns263 0 23.3700179636 noise=0
Ga262 ns262 0 ns263 0 -0.32363874977
Ga263 ns263 0 ns262 0 0.32363874977
Ca264 ns264 0 1e-12
Ca265 ns265 0 1e-12
Ra264 ns264 0 13.6366308475 noise=0
Ra265 ns265 0 13.6366308475 noise=0
Ga264 ns264 0 ns265 0 -0.2818027486
Ga265 ns265 0 ns264 0 0.2818027486
Ca266 ns266 0 1e-12
Ca267 ns267 0 1e-12
Ra266 ns266 0 36.4720266288 noise=0
Ra267 ns267 0 36.4720266288 noise=0
Ga266 ns266 0 ns267 0 -0.291418716466
Ga267 ns267 0 ns266 0 0.291418716466
Ca268 ns268 0 1e-12
Ca269 ns269 0 1e-12
Ra268 ns268 0 22.570362028 noise=0
Ra269 ns269 0 22.570362028 noise=0
Ga268 ns268 0 ns269 0 -0.219789949348
Ga269 ns269 0 ns268 0 0.219789949348
Ca270 ns270 0 1e-12
Ca271 ns271 0 1e-12
Ra270 ns270 0 35.3564229023 noise=0
Ra271 ns271 0 35.3564229023 noise=0
Ga270 ns270 0 ns271 0 -0.196387080388
Ga271 ns271 0 ns270 0 0.196387080388
Ca272 ns272 0 1e-12
Ca273 ns273 0 1e-12
Ra272 ns272 0 19.3225792178 noise=0
Ra273 ns273 0 19.3225792178 noise=0
Ga272 ns272 0 ns273 0 -0.158984338989
Ga273 ns273 0 ns272 0 0.158984338989
Ca274 ns274 0 1e-12
Ca275 ns275 0 1e-12
Ra274 ns274 0 22.3171225035 noise=0
Ra275 ns275 0 22.3171225035 noise=0
Ga274 ns274 0 ns275 0 -0.112121022154
Ga275 ns275 0 ns274 0 0.112121022154
Ca276 ns276 0 1e-12
Ca277 ns277 0 1e-12
Ra276 ns276 0 35.6994407039 noise=0
Ra277 ns277 0 35.6994407039 noise=0
Ga276 ns276 0 ns277 0 -0.097312790312
Ga277 ns277 0 ns276 0 0.097312790312
Ca278 ns278 0 1e-12
Ca279 ns279 0 1e-12
Ra278 ns278 0 21.0761624353 noise=0
Ra279 ns279 0 21.0761624353 noise=0
Ga278 ns278 0 ns279 0 -0.0785079694625
Ga279 ns279 0 ns278 0 0.0785079694625
Ca280 ns280 0 1e-12
Ca281 ns281 0 1e-12
Ra280 ns280 0 6461.79173097 noise=0
Ra281 ns281 0 6461.79173097 noise=0
Ga280 ns280 0 ns281 0 -0.0625345296116
Ga281 ns281 0 ns280 0 0.0625345296116
Ca282 ns282 0 1e-12
Ca283 ns283 0 1e-12
Ra282 ns282 0 26.8817745081 noise=0
Ra283 ns283 0 26.8817745081 noise=0
Ga282 ns282 0 ns283 0 -0.016065358588
Ga283 ns283 0 ns282 0 0.016065358588
Ca284 ns284 0 1e-12
Ra284 ns284 0 30.8646103733 noise=0
Ca285 ns285 0 1e-12
Ra285 ns285 0 24137.9690629 noise=0
Ca286 ns286 0 1e-12
Ca287 ns287 0 1e-12
Ra286 ns286 0 3536.160082 noise=0
Ra287 ns287 0 3536.160082 noise=0
Ga286 ns286 0 ns287 0 -0.000237869767882
Ga287 ns287 0 ns286 0 0.000237869767882
Ca288 ns288 0 1e-12
Ra288 ns288 0 0.0599459941272 noise=0
Ca289 ns289 0 1e-12
Ra289 ns289 0 0.714606679535 noise=0
Ca290 ns290 0 1e-12
Ra290 ns290 0 1.19287160881 noise=0
Ca291 ns291 0 1e-12
Ca292 ns292 0 1e-12
Ra291 ns291 0 26.828727021 noise=0
Ra292 ns292 0 26.828727021 noise=0
Ga291 ns291 0 ns292 0 -0.518048785893
Ga292 ns292 0 ns291 0 0.518048785893
Ca293 ns293 0 1e-12
Ca294 ns294 0 1e-12
Ra293 ns293 0 90.0406412861 noise=0
Ra294 ns294 0 90.0406412861 noise=0
Ga293 ns293 0 ns294 0 -0.487119257249
Ga294 ns294 0 ns293 0 0.487119257249
Ca295 ns295 0 1e-12
Ca296 ns296 0 1e-12
Ra295 ns295 0 29.4872472308 noise=0
Ra296 ns296 0 29.4872472308 noise=0
Ga295 ns295 0 ns296 0 -0.46382169076
Ga296 ns296 0 ns295 0 0.46382169076
Ca297 ns297 0 1e-12
Ca298 ns298 0 1e-12
Ra297 ns297 0 31.4880587202 noise=0
Ra298 ns298 0 31.4880587202 noise=0
Ga297 ns297 0 ns298 0 -0.426117672518
Ga298 ns298 0 ns297 0 0.426117672518
Ca299 ns299 0 1e-12
Ca300 ns300 0 1e-12
Ra299 ns299 0 19.1952084606 noise=0
Ra300 ns300 0 19.1952084606 noise=0
Ga299 ns299 0 ns300 0 -0.398679757461
Ga300 ns300 0 ns299 0 0.398679757461
Ca301 ns301 0 1e-12
Ca302 ns302 0 1e-12
Ra301 ns301 0 38.9735617239 noise=0
Ra302 ns302 0 38.9735617239 noise=0
Ga301 ns301 0 ns302 0 -0.385574664967
Ga302 ns302 0 ns301 0 0.385574664967
Ca303 ns303 0 1e-12
Ca304 ns304 0 1e-12
Ra303 ns303 0 23.3700179636 noise=0
Ra304 ns304 0 23.3700179636 noise=0
Ga303 ns303 0 ns304 0 -0.32363874977
Ga304 ns304 0 ns303 0 0.32363874977
Ca305 ns305 0 1e-12
Ca306 ns306 0 1e-12
Ra305 ns305 0 13.6366308475 noise=0
Ra306 ns306 0 13.6366308475 noise=0
Ga305 ns305 0 ns306 0 -0.2818027486
Ga306 ns306 0 ns305 0 0.2818027486
Ca307 ns307 0 1e-12
Ca308 ns308 0 1e-12
Ra307 ns307 0 36.4720266288 noise=0
Ra308 ns308 0 36.4720266288 noise=0
Ga307 ns307 0 ns308 0 -0.291418716466
Ga308 ns308 0 ns307 0 0.291418716466
Ca309 ns309 0 1e-12
Ca310 ns310 0 1e-12
Ra309 ns309 0 22.570362028 noise=0
Ra310 ns310 0 22.570362028 noise=0
Ga309 ns309 0 ns310 0 -0.219789949348
Ga310 ns310 0 ns309 0 0.219789949348
Ca311 ns311 0 1e-12
Ca312 ns312 0 1e-12
Ra311 ns311 0 35.3564229023 noise=0
Ra312 ns312 0 35.3564229023 noise=0
Ga311 ns311 0 ns312 0 -0.196387080388
Ga312 ns312 0 ns311 0 0.196387080388
Ca313 ns313 0 1e-12
Ca314 ns314 0 1e-12
Ra313 ns313 0 19.3225792178 noise=0
Ra314 ns314 0 19.3225792178 noise=0
Ga313 ns313 0 ns314 0 -0.158984338989
Ga314 ns314 0 ns313 0 0.158984338989
Ca315 ns315 0 1e-12
Ca316 ns316 0 1e-12
Ra315 ns315 0 22.3171225035 noise=0
Ra316 ns316 0 22.3171225035 noise=0
Ga315 ns315 0 ns316 0 -0.112121022154
Ga316 ns316 0 ns315 0 0.112121022154
Ca317 ns317 0 1e-12
Ca318 ns318 0 1e-12
Ra317 ns317 0 35.6994407039 noise=0
Ra318 ns318 0 35.6994407039 noise=0
Ga317 ns317 0 ns318 0 -0.097312790312
Ga318 ns318 0 ns317 0 0.097312790312
Ca319 ns319 0 1e-12
Ca320 ns320 0 1e-12
Ra319 ns319 0 21.0761624353 noise=0
Ra320 ns320 0 21.0761624353 noise=0
Ga319 ns319 0 ns320 0 -0.0785079694625
Ga320 ns320 0 ns319 0 0.0785079694625
Ca321 ns321 0 1e-12
Ca322 ns322 0 1e-12
Ra321 ns321 0 6461.79173097 noise=0
Ra322 ns322 0 6461.79173097 noise=0
Ga321 ns321 0 ns322 0 -0.0625345296116
Ga322 ns322 0 ns321 0 0.0625345296116
Ca323 ns323 0 1e-12
Ca324 ns324 0 1e-12
Ra323 ns323 0 26.8817745081 noise=0
Ra324 ns324 0 26.8817745081 noise=0
Ga323 ns323 0 ns324 0 -0.016065358588
Ga324 ns324 0 ns323 0 0.016065358588
Ca325 ns325 0 1e-12
Ra325 ns325 0 30.8646103733 noise=0
Ca326 ns326 0 1e-12
Ra326 ns326 0 24137.9690629 noise=0
Ca327 ns327 0 1e-12