* BEGIN ANSOFT HEADER
* node 1    1:trace_p_0_T1_A
* node 2    1:trace_n_0_T1_A
* node 3    1:trace_n_1_T1_A
* node 4    1:trace_p_1_T1_A
* node 5    Ground_A
* node 6    1:trace_p_0_T1_B
* node 7    1:trace_n_0_T1_B
* node 8    1:trace_n_1_T1_B
* node 9    1:trace_p_1_T1_B
* node 10   Ground_B
*  Project: 4lines
*   Design: 2-diff-pairs
*   Length: 5
*   Format: HSPICE
*  Creator: Ansoft HFSS
*     Date: Sat Jun 06 10:16:34 2020
* END ANSOFT HEADER

.subckt ckt_m4lines_HFSS_W 1 2 3 4 inref 5 6 7 8 outref length=5.08M

.model m4lines_HFSS_W_1 W MODELTYPE=table N=4 RMODEL=r_m4lines_HFSS_W_1
+ LMODEL=l_m4lines_HFSS_W_1 GMODEL=g_m4lines_HFSS_W_1 CMODEL=c_m4lines_HFSS_W_1

* Example usage:
W1 1 2 3 4 inref 5 6 7 8 outref N=4 L=length TABLEMODEL=m4lines_HFSS_W_1

.model r_m4lines_HFSS_W_1 sp N=4 SPACING=nonuniform VALTYPE=real
+ INTERPOLATION=spline
+ DATA = 700
+ 0           
+        6.906563104539061
+       0.6824161915317021
+        7.004584896377449
+       0.2837910405679777
+       0.9085696485041762
+        7.004887839056049
+       0.1145299239677343
+       0.2838404372629029
+       0.6766741287148066
+        6.856349044729821
+ 2e+08       
+        10.30113018179325
+        1.016369991615166
+        10.42632538041021
+       0.4018314087202817
+        1.334554596554753
+        10.41166364888455
+       0.1591891771844975
+       0.4037052692906891
+       0.9956869977619988
+        10.18231608077756
+ 3e+08       
+        12.64693105855384
+        1.143445082924333
+        12.80083132398006
+       0.4676939192679698
+         1.61106569253252
+         12.7762878231201
+       0.1753503940366344
+       0.4722341824890993
+        1.128844953370267
+        12.46352802132555
+ 4e+08       
+        14.63939197932881
+        1.258953351911071
+        14.82210135968447
+       0.5156127722746302
+        1.846192710895932
+          14.787841859159
+        0.181877090736275
+         0.52253867378994
+        1.249142618813348
+        14.39228693024461
+ 5e+08       
+        16.47200157222983
+        1.384934013041704
+        16.67790545488358
+       0.5602022126706039
+         2.06378850362835
+        16.63424818619715
+       0.1888717287836398
+       0.5693786520762407
+        1.377373107058749
+         16.1634982631831
+ 6e+08       
+        18.17011827891403
+        1.505648952327599
+        18.39373979737844
+       0.6034369240157705
+        2.264998191080702
+        18.34147658651015
+       0.1975974737755371
+       0.6147865607558634
+        1.498931333523312
+        17.80301996088844
+ 7e+08       
+        19.73880326064288
+        1.612446501113803
+        19.97721181134416
+       0.6444640535755874
+        2.449893571943583
+        19.91722839205754
+       0.2069202905547622
+       0.6578909896267338
+         1.60593246301257
+        19.31551094799766
+ 8e+08       
+        21.19426812974825
+        1.706646351512395
+        21.44648842603627
+       0.6826178836295976
+        2.620744225052114
+        21.37958398469257
+        0.215746200272815
+       0.6980109576400029
+        1.700104153249248
+        20.71677202728548
+ 9e+08       
+        22.56356240548607
+        1.795012715869257
+        22.82888586693532
+       0.7179645651863509
+        2.781310092291281
+        22.75579286350476
+       0.2235815349106163
+       0.7352228720687354
+        1.788452779992685
+        22.03380519838202
+ 1e+09       
+         23.8787626072638
+        1.885970198019283
+        24.15519908538059
+       0.7511468146685966
+         2.93583252969783
+        24.07668354204158
+       0.2304596376260809
+       0.7701990279719761
+        1.879579575967833
+        23.29895651296864
+ 1.1e+09     
+        25.13360880680375
+        1.877247010669332
+        25.46015527882673
+       0.7006177817879486
+        3.071174545045083
+        25.37228517375954
+       0.1334815764463078
+       0.7164888255646643
+        1.865935141681817
+        24.48271534323289
+ 1.2e+09     
+          26.413802348726
+        1.917487571151088
+        26.78689155250182
+       0.6668742201136855
+        3.219228316629543
+        26.69002914977433
+      0.04085201756988904
+       0.6794232458096092
+        1.901114284232534
+        25.69262154349731
+ 1.3e+09     
+        27.70271178711088
+        1.995196694252474
+        28.11765985622207
+       0.6471989628528618
+        3.374020354572104
+        28.01229814123893
+     -0.04712763676555201
+       0.6564618393272081
+        1.973735321480377
+         26.9128766354176
+ 1.4e+09     
+         28.9862346561308
+        2.099994894815049
+        29.43766272211967
+       0.6390142536543031
+        3.530819532168033
+        29.32439307246827
+      -0.1301951135517385
+       0.6451561542077671
+        2.073522409669733
+        28.13001365416687
+ 1.5e+09     
+        30.25281907502116
+        2.222936849738949
+        30.73500525899849
+       0.6400050534597476
+        3.685947702940206
+        30.61448642188762
+      -0.2080970837669806
+       0.6432802342447754
+        2.191617934300631
+        29.33293507213535
+ 1.6e+09     
+        31.49334226940813
+        2.356585581118154
+        32.00050606916199
+       0.6481722346137162
+        3.836620953849006
+        31.87343612684141
+      -0.2805803050132432
+       0.6488921226099735
+        2.320654341145846
+        30.51281371744576
+ 1.7e+09     
+        32.70090070723933
+        2.494948083667501
+        33.22742390325894
+       0.6618417113592565
+         3.98081178650944
+        33.09451622322792
+       -0.347394208006092
+       0.6603507341567383
+        2.454689936810639
+        31.66290801824352
+ 1.8e+09     
+        33.87055317896288
+        2.633339875165639
+        34.41114331088961
+       0.6796479618456754
+        4.117127671504956
+        34.27310688523927
+      -0.4082985495883609
+       0.6763058910640306
+        2.589075112619156
+        32.77833036634153
+ 1.9e+09     
+        34.99904663387917
+        2.768219794962333
+        35.54885042424731
+       0.7005042622187286
+        4.244703894688388
+        35.40637455769421
+      -0.4630723215640521
+       0.6956737207681857
+        2.720289554020939
+        33.85579668899106
+ 2e+09       
+        36.08454519537862
+        2.897019330257495
+        36.63921991421584
+       0.7235674603330687
+        4.363109608820293
+        36.49296292595743
+      -0.5115218439454163
+       0.7176053664001651
+         2.84577420083148
+        34.89337662603143
+ 2.1e+09     
+        37.12637543382786
+        3.017979966772407
+        37.68212618130569
+       0.7482020125610711
+        4.472266274306121
+        37.53270761943923
+      -0.5534870826462486
+       0.7414539408031684
+        2.963771138799809
+        35.89025691005155
+ 2.2e+09     
+        38.12479544801801
+         3.13000539082003
+        38.67838583863032
+       0.7739459483816847
+        4.572377642037408
+        38.52638163691456
+      -0.5888459019120804
+       0.7667426039372701
+        3.073178076992598
+        36.84652540924064
+ 2.3e+09     
+        39.08079131014955
+        3.232531338474817
+        39.62953424167434
+       0.8004801076416036
+        4.663870315927253
+        39.47547424693791
+      -0.6175163372374983
+        0.793135298867383
+        3.173420130957934
+        37.76297955121164
+ 2.4e+09     
+        39.99590167191469
+        3.325413525827225
+        40.53763590662891
+       0.8276011782931839
+        4.747343831252056
+        40.38200324586258
+      -0.6394571610084819
+       0.8204108299973468
+        3.264339330800465
+        38.64096023536927
+ 2.5e+09     
+        40.87206953459171
+        3.408832778762414
+        41.40512682560642
+       0.8551985780058389
+        4.823529132741053
+        41.24835864534101
+       -0.654667083635071
+       0.8484404490690942
+        3.346100992980974
+        39.48221061399997
+ 2.6e+09     
+        41.71151911150566
+         3.48321581323818
+        42.23468565434798
+       0.8832349536853334
+        4.893254337556324
+        42.07717483753759
+      -0.6631829362350669
+       0.8771688160199744
+        3.419115445074411
+        40.28875806073339
+ 2.7e+09     
+        42.51665515414317
+        3.549169844048279
+        43.02913028190433
+       0.9117299392270277
+        4.957416713452966
+        42.87122782017345
+      -0.6650771485575796
+       0.9065980446143136
+        3.483973326518623
+        41.06281706712924
+ 2.8e+09     
+        43.28998191204465
+        3.607429160254141
+        43.79133620593243
+       0.9407467611622353
+        5.016959878018944
+        43.63335397228684
+      -0.6604547875686956
+       0.9367744738449049
+        3.541392648696744
+        41.80671056751079
+ 2.9e+09     
+        44.03403892757394
+        3.658811896694104
+        44.52417329034031
+       0.9703812799279194
+        5.072855317999452
+        44.36638701651808
+      -0.6494503698101377
+        0.967777790303923
+        3.592175885383869
+        42.52280717568101
+ 3e+09       
+        44.75135103857981
+        3.704185389183002
+        45.23045777140442
+        1.000753079320065
+        5.126087427739868
+        45.07311008393909
+      -0.6322246109309559
+       0.9997121411823455
+        3.637175517546796
+        43.21347194054515
+ 3.1e+09     
+        45.44439021011045
+        3.744438686742028
+        45.91291673283791
+        1.031998254499914
+        5.177641365007231
+        45.75622014273956
+      -0.6089612319983669
+        1.032698907695593
+        3.677266636471536
+        43.88102843034645
+ 3.2e+09     
+        46.11554709667823
+        3.780460983910714
+        46.57416264244353
+        1.064263591324635
+        5.228493115785835
+        46.41830241591978
+      -0.5798639055774912
+        1.066870845511535
+        3.713325393358125
+        44.52773019529499
+ 3.3e+09     
+        46.76711052050116
+         3.81312491655735
+        47.21667590356453
+        1.097701871889921
+        5.279601244157071
+        47.06181276646844
+       -0.545153395187145
+        1.102367336777762
+        3.746212258896708
+        45.15573990807333
+ 3.4e+09     
+        47.40125332129512
+        3.843273828783185
+        47.84279370684968
+        1.132468080366861
+        5.331899877786682
+        47.68906635469657
+      -0.5050649189939536
+        1.139330534578318
+        3.776759216225821
+        45.76711472363277
+ 3.5e+09     
+        48.02002327994694
+        3.871712263692831
+        48.45470376375133
+        1.168716318266369
+        5.386292543765577
+        48.30223116332631
+      -0.4598457516022048
+        1.177902213573722
+        3.805760152287155
+        46.36379662380951
+ 3.6e+09     
+        48.62533803745464
+        3.899199056594089
+        49.05444176022541
+        1.206597268814421
+        5.443646524334284
+        48.90332523900577
+      -0.4097530655452846
+        1.218221169611476
+        3.833963835491157
+        46.94760671355224
+ 3.7e+09     
+        49.21898312089475
+         3.92644251658192
+        49.64389158826501
+        1.246256076330699
+        5.504787448697839
+        49.49421671499612
+      -0.3550520056299893
+        1.260421036232305
+        3.862068972707726
+        47.52024261224865
+ 3.8e+09     
+        49.80261235098857
+        3.954097273162087
+        50.22478759716299
+         1.28783052882599
+        5.570493877455497
+        50.07662586167979
+      -0.2960139837633213
+        1.304628407572463
+        3.890720927511543
+        48.08327823612194
+ 3.9e+09     
+        50.37775004329847
+        3.982762440583069
+        50.79871825971519
+        1.331449451087649
+        5.641491672195523
+        50.65212856309338
+      -0.2329151785556047
+        1.350961175701608
+        3.920509756254148
+        48.63816539749394
+ 4e+09       
+        50.94579452998509
+        4.012980815928439
+        51.36713077526623
+        1.377231232004953
+        5.718447976872666
+        51.22216074309418
+      -0.1660352222153378
+        1.399527006572316
+        3.951969280885713
+        49.18623675606938
+ 4.1e+09     
+        51.50802262428559
+        4.045238879743968
+        51.93133623586157
+        1.425282424535093
+        5.801964672278301
+        51.78802336821313
+     -0.09565605651215758
+        1.450421893180332
+        3.985576969402753
+        49.72870974872514
+ 4.2e+09     
+        52.06559472829911
+        4.079967411840163
+        52.49251506784654
+        1.475696370276152
+        5.892571203037121
+        52.35088773969727
+     -0.02206093946251131
+        1.503728737959958
+        4.021754438103826
+        50.26669120000732
+ 4.3e+09     
+        52.61956034887759
+        4.117542571540989
+          53.051722532765
+        1.528551813842085
+        5.990716721111709
+        52.91180085833434
+      0.05446641545458153
+          1.5595159295887
+        4.060868426061614
+        50.80118237797789
+ 4.4e+09     
+         53.1708638387851
+        4.158287322454957
+        53.60989413164597
+         1.58391148585273
+        6.096761543847857
+        53.47169070563288
+        0.133642585591065
+         1.61783589295692
+        4.103232122745124
+        51.33308431129314
+ 4.5e+09     
+        53.72035022285134
+        4.202473108051674
+        54.16785080861822
+        1.641820648034076
+        6.210967991137725
+        54.03137133663432
+       0.2151850890365952
+        1.678723605734383
+        4.149106755740776
+        51.86320322531001
+ 4.6e+09     
+        54.26877100336303
+        4.250321706960971
+        54.72630389569141
+        1.702305610251364
+        6.333490747910153
+        54.59154772547262
+       0.2988129566890638
+        1.742195091308372
+        4.198703368032485
+        52.39225598921487
+ 4.7e+09     
+        54.81678986690136
+        4.302007216814584
+        55.28585978244726
+        1.765372247685654
+        6.464366996623367
+        55.15282034668343
+       0.3842472459781272
+        1.808245916285951
+        4.252184734129894
+        52.92087549404097
+ 4.8e+09     
+        55.36498823747494
+        4.357658133263372
+        55.84702433368611
+        1.831004566967411
+        6.603506679992184
+        55.71568951460711
+       0.4712115172093507
+        1.876849741396468
+        4.309667382110382
+        53.44961590412932
+ 4.9e+09     
+        55.91387063912534
+        4.417359506954501
+        56.41020711555567
+        1.899163392662827
+        6.750683384784341
+        56.28055954074964
+       0.5594322954845294
+        1.947956997259803
+        4.371223704779713
+        53.97895774305275
+ 5e+09       
+        56.46386984598216
+        4.481155175932922
+           56.97572552631
+        1.969785269297949
+        6.905526477865711
+        56.84774280465894
+       0.6486395435242955
+        2.021493780326905
+        4.436884157844935
+         54.5093127900176
+ 5.1e+09     
+        57.01535180963184
+        4.549050084065412
+        57.54380896071604
+        2.042781697639141
+        7.067515266223199
+        57.41746386680833
+       0.7385671732287635
+         2.09736108788602
+        4.506639556146861
+        55.04102877484839
+ 5.2e+09     
+        57.56862036305395
+        4.621012707308225
+        58.11460316529986
+        2.118038844946571
+        7.235976078864236
+        57.98986378022911
+       0.8289536260788943
+        2.175434532079142
+        4.580443490251724
+        55.57439386927101
+ 5.3e+09     
+        58.12392170754696
+        4.696977618296096
+        58.68817496214027
+        2.195417884236734
+        7.410083260332271
+        58.56500477821708
+       0.9195425539846749
+        2.255564688241972
+        4.658214894394116
+          56.109640979586
+ 5.4e+09     
+        58.68144869415089
+         4.77684822490769
+        59.26451752787855
+        2.274756123309101
+         7.58886509831535
+        59.14287552447221
+        1.010083632277152
+        2.337578238643423
+        4.739840801978947
+        56.64695185110278
+ 5.5e+09     
+        59.24134491410202
+        4.860499719081026
+        59.84355640753864
+        2.355869076016511
+        7.771215653724818
+        59.72339710501554
+        1.100333534495925
+        2.421280064458819
+        4.825179325509017
+        57.18646099791028
+ 5.6e+09     
+        59.80370861381904
+        4.947782267122491
+        60.42515641519265
+        2.438553601679951
+        7.955913293517154
+         60.3064299137366
+        1.190057093732077
+        2.506456412254103
+        4.914062892817128
+        57.72825947268396
+ 5.7e+09     
+        60.36859644880447
+        5.038524461234284
+        61.00912952199447
+        2.522592190297495
+          8.1416464231296
+        60.89178153196716
+        1.279028666993115
+        2.592879213013484
+        5.006301760001036
+        58.27239849024892
+ 5.8e+09     
+        60.93602708772821
+        5.132537033662937
+        61.59524375529033
+        2.607758399915551
+        8.327046468018747
+        61.47921562571933
+        1.367033707130734
+        2.680311560452954
+        5.101687803178343
+        58.81889291562539
+ 5.9e+09     
+         61.5059846730786
+        5.229616810306308
+        62.18323303243351
+          2.6938233600138
+        8.510727573492941
+        62.06846178420171
+        1.453870531596154
+         2.76851426282041
+        5.199998566647717
+        59.36772462250205
+ 6e+09       
+        62.07842213857897
+        5.329550851489643
+        62.77280773601302
+        2.780563146876943
+         8.69133181547047
+        62.65922610635526
+        1.539352259601943
+        2.857253274469476
+        5.301001515950118
+        59.91884572198492
+ 6.1e+09     
+        62.65326437678969
+        5.432120696843685
+        63.36366571465815
+         2.86776672401219
+        8.867578006538908
+        63.25120221965143
+        1.623308870834883
+        2.946307700538992
+        5.404458413575535
+        60.47218165476411
+ 6.2e+09     
+        63.23041124387496
+        5.537106602789719
+         63.9555032808289
+        2.955244036942165
+        9.038311530779382
+         63.8440823026818
+        1.705589321972236
+        3.035477964304357
+        5.510129706658697
+          61.027634133467
+ 6.3e+09     
+        63.80974038348465
+        5.644291639673813
+        64.54802569185314
+        3.042833773602387
+        9.202552150292171
+        64.43756759795635
+        1.786063644552039
+        3.124593648644296
+        5.617778794565801
+        61.58508391698311
+ 6.4e+09     
+        64.39110984907195
+        5.753465505563049
+        65.14095656018414
+        3.130410265016923
+        9.359536496045065
+         65.0313778610634
+        1.864624941800137
+        3.213520486514052
+        5.727176034263078
+        62.14439339597316
+ 6.5e+09     
+        64.97436050454836
+        5.864427918512837
+        65.73404565643035
+        3.217889017926838
+        9.508752061004916
+        65.62525920993781
+        1.941191204753265
+        3.302165992352966
+         5.83810234616625
+        62.70540896938503
+ 6.6e+09     
+        65.55931818725729
+        5.976991470127565
+        66.32707464948153
+        3.305230446475051
+        9.649959985267046
+        66.21898991876755
+        2.015706880215629
+        3.390483301855109
+        5.950352304193172
+        63.26796319592071
+ 6.7e+09     
+        66.14579562461496
+        6.090983859278855
+        66.91986046727006
+        3.392441499489436
+        9.783204733637856
+        66.81238384027495
+        2.088144144022805
+        3.478472917075141
+         6.06373662978603
+        63.83187671179262
+ 6.8e+09     
+         66.7335941055662
+         6.20624947205278
+        67.51225614431199
+         3.47957504939032
+        9.908809828574579
+        67.40529132271111
+        2.158503860496738
+        3.566182223454015
+        6.178084056876934
+        64.39695991593521
+ 6.9e+09     
+        67.32250491894779
+        6.322650326393272
+        68.10414922490597
+        3.566727096741766
+        10.02735998074077
+        67.99759769061197
+        2.226816239374393
+        3.653702833480851
+        6.293242587156711
+         64.9630144348028
+ 7e+09       
+        67.91231058140002
+        6.440066450472162
+        68.69545798649382
+        3.654032025755576
+         10.1396710977257
+        68.58921955398222
+        2.293141230803429
+        3.741165993126533
+        6.409080205559022
+        65.52983438945579
+ 7.1e+09     
+        68.50278588616652
+        6.558395805852879
+        69.28612591022127
+        3.741656296616448
+        10.24675059806631
+         69.1800993730824
+        2.357568723339221
+        3.828736437848539
+        6.525485167882051
+        66.09720749634049
+ 7.2e+09     
+        69.09369880984426
+        6.677553894919234
+        69.87611493544114
+        3.829791062069507
+          10.349751098004
+        69.77019881568515
+        2.420218626302572
+        3.916605186606772
+         6.64236600084495
+        66.66491603890762
+ 7.3e+09     
+        69.68481131633062
+        6.797473204179948
+         70.4653980815975
+        3.918644238912828
+        10.44992081334903
+        70.35949149035442
+        2.481240924852573
+        4.004981805551772
+        6.759651366972693
+        67.23273774938991
+ 7.4e+09     
+        70.27588009586867
+        6.918102631036625
+        71.05395200506922
+        4.008432550298189
+        10.54855393085806
+        70.94795562342372
+        2.540815793769219
+        4.094086658281377
+        6.877289942624181
+        67.80044663871719
+ 7.5e+09     
+         70.8666572727815
+        7.039407023905529
+        71.64174998984416
+        4.099373991075866
+        10.64694380890907
+        71.53556717864241
+        2.599153845683778
+        4.184143595824546
+        6.995250439716355
+        68.36781380821661
+ 7.6e+09     
+        71.45689110909069
+        7.161366938326259
+        72.22875576529309
+        4.191681070587211
+        10.74634125835885
+        72.12229381284503
+        2.656496573728468
+        4.275373441574557
+        7.113521874358121
+        68.93460827034144
+ 7.7e+09     
+         72.0463267237979
+        7.283978679606379
+        72.81491842020692
+        4.285555072337454
+        10.84791943790803
+        72.70808993688492
+        2.713117030051279
+        4.367988511291768
+        7.232114153429755
+        69.50059779822308
+ 7.8e+09     
+        72.63470684012356
+        7.407254670120267
+        73.40016855698562
+         4.38118145391231
+         10.9527461746304
+        73.29289302578792
+        2.769320762945688
+        4.462188292080153
+        7.351059017604669
+        70.06554981633292
+ 7.9e+09     
+        73.22177256624931
+        7.531224150159904
+        73.98441571720498
+         4.47872640606742
+        11.06176386939348
+        73.87662120939979
+        2.825447018532961
+        4.558156299649294
+        7.470411349965576
+        70.62923233775672
+ 8e+09       
+        73.80726420958982
+        7.655934197535881
+         74.5675470186552
+        4.578334505377751
+         11.1757766205697
+        74.45917208364469
+        2.881870199336718
+        4.656058048467894
+         7.59025083552934
+        71.19141494802284
+ 8.1e+09     
+        74.39092212055897
+        7.781451033999883
+        75.14942687838982
+        4.680127333910271
+        11.29544382116841
+        75.04042261693267
+        2.939001562303194
+        4.756040008319754
+        7.710683939712489
+        71.75186983132244
+ 8.2e+09     
+        74.97248755919527
+        7.907861575992102
+        75.72989765625924
+         4.78420290199026
+        11.42127925385749
+         75.6202299861488
+        2.997291132828575
+        4.858229383202616
+        7.831846163032512
+         72.3103728323028
+ 8.3e+09     
+        75.55170357669934
+        8.035275182441985
+          76.308781035826
+        4.890635693494469
+        11.55365460797918
+        76.19843315903724
+        3.057229808705342
+        4.962734531682152
+        7.953904524374335
+         72.8667045452558
+ 8.4e+09     
+        76.12831590364554
+        8.163825552179752
+        76.88587995986374
+        4.999477152953943
+        11.69280634587727
+        76.77485504005662
+        3.119351627900215
+        5.069645847455179
+          8.0770602247811
+        73.42065142215927
+ 8.5e+09     
+        76.70207383708625
+        8.293672726638803
+        77.46098095069399
+        5.110756445340233
+        11.83884492292312
+        77.34930500977791
+        3.184236175958593
+        5.179036930238052
+        8.201551446624803
+        73.97200689142616
+ 8.6e+09     
+        77.27273111967851
+        8.425005158686325
+        78.03385666657367
+        5.224481338266691
+        11.99176548849131
+        77.92158170879813
+        3.252511111869653
+        5.290965895695326
+        8.327656247933183
+         74.5205724800426
+ 8.7e+09     
+        77.84004680510701
+        8.558041814568346
+        78.60426857012645
+        5.340639078693949
+        12.15145934014154
+        78.49147594186809
+        3.324854794812701
+        5.405476695192314
+        8.455695517539667
+        75.06615893284288
+ 8.8e+09     
+        78.40378610527971
+         8.69303428229002
+        79.17196961030933
+        5.459197159215966
+        12.31772555236504
+        79.05877360335815
+         3.40199899787449
+        5.522600338816494
+        8.586035962784718
+        75.60858732378034
+ 8.9e+09     
+        78.96372121590132
+        8.830268865717168
+        79.73670684346095
+          5.5801038906477
+        12.49028234200656
+         79.6232585491842
+        3.484731698258543
+        5.642355936390698
+         8.71909310716887
+        76.14769015508216
+ 9e+09       
+        79.51963211802493
+        8.970068648952594
+        80.29822394031369
+         5.70328871675104
+         12.6687778573511
+        80.18471536157229
+        3.573899936510043
+        5.764751489910124
+        8.855334280314425
+        76.68331244106648
+ 9.1e+09     
+        80.07130735399349
+        9.112795519937297
+        80.85626354381731
+        5.828662222961936
+        12.85280018324654
+        80.74293197094229
+        3.670412739760577
+        5.889784386410284
+        8.995281586668618
+        77.21531277410226
+ 9.2e+09     
+        80.61854477681395
+        9.258852145735844
+        81.41056945710616
+        5.956115803811822
+        13.04188643972212
+         81.2977021135989
+        3.775244105938817
+        6.017441552607247
+        9.139514842542338
+            77.7435643707
+ 9.3e+09     
+        81.16115227246335
+        9.408683894616557
+        81.96088865211748
+        6.085520963561841
+        13.23553091742649
+         81.8488276150149
+        3.889436047326214
+        6.147699241937942
+        9.288674473379224
+        78.26795609605456
+ 9.4e+09     
+        81.69894845492976
+          9.5627807019412
+        82.50697309759342
+        6.216728231757042
+        13.43319224198906
+        82.39612049665037
+        4.014101692818786
+        6.280522431233059
+        9.443464364682583
+        78.78839346552945
+ 9.5e+09     
+        82.23176333396947
+        9.721678878149929
+         83.0485814109625
+        6.349565680407906
+        13.63429959373998
+        82.93940490992789
+        4.150428448860445
+        6.415863808631421
+         9.60465466091912
+        79.30479962161841
+ 9.6e+09     
+        82.75943895564417
+        9.885962857886437
+        83.58548034232514
+        6.483837032783928
+        13.83825803182647
+        83.47851890464676
+        4.299681219312694
+         6.55366233695756
+        9.773084507089877
+        79.81711628484612
+ 9.7e+09     
+        83.28183001570417
+        10.05626688967877
+         84.1174461009429
+        6.619319355803212
+        14.04445298519778
+        84.01331604120432
+         4.46320568459376
+        6.693841378087971
+         9.94966472763091
+        80.32530467694322
+ 9.8e+09     
+        83.79880444585595
+        10.23327666567078
+         84.6442655356111
+         6.75576032912666
+        14.25225397946364
+        84.54366685691669
+        4.642431640320248
+        6.836306364228728
+        10.13538043698965
+        80.82934641443174
+ 9.9e+09     
+        84.31024397287686
+        10.41773089078248
+        85.16573718044023
+        6.892875084660892
+        14.46101767016425
+        85.06946019678479
+        4.838876395473904
+        6.980942001878422
+         10.3312935757031
+        81.32924437054413
+ 1e+10       
+        84.81604465047202
+        10.61042279043266
+        85.68167217712174
+        7.030342610544302
+        14.67009025108539
+        85.59060441854601
+        5.054148229843528
+        7.127608993862992
+        10.53854536516506
+         81.8250235031658
+ 1.01e+10    
+        84.89643805549137
+        10.48982771951026
+        85.71505501472609
+        6.969545134059105
+        14.50999242878632
+        85.66376329093481
+        5.038011685041097
+        7.066566183012172
+        10.42155914832356
+        81.88322467214805
+ 1.02e+10    
+        84.98949755872313
+        10.37798332289066
+        85.76859018295582
+        6.913419625089061
+        14.36322046457863
+        85.75386228854681
+        5.024131733676015
+        7.010295406597599
+        10.31296951625201
+        81.95431485581983
+ 1.03e+10    
+        85.09506749615508