* BEGIN ANSOFT HEADER
* node 1    1:trace_p_0_T1_A
* node 2    1:trace_n_0_T1_A
* node 3    1:trace_n_1_T1_A
* node 4    1:trace_p_1_T1_A
* node 5    Ground_A
* node 6    1:trace_p_0_T1_B
* node 7    1:trace_n_0_T1_B
* node 8    1:trace_n_1_T1_B
* node 9    1:trace_p_1_T1_B
* node 10   Ground_B
*  Project: 4lines
*   Design: 2-diff-pairs
*   Length: 5
*   Format: HSPICE
*  Creator: Ansoft HFSS
*     Date: Sat Jun 06 09:41:10 2020
* END ANSOFT HEADER

.subckt ckt_m4lines_port_W 1 2 3 4 inref 5 6 7 8 outref length=5.08M

.model m4lines_port_1 W MODELTYPE=table N=4 RMODEL=r_m4lines_port_1
+ LMODEL=l_m4lines_port_1 GMODEL=g_m4lines_port_1 CMODEL=c_m4lines_port_1

* Example usage:
W1 1 2 3 4 inref 5 6 7 8 outref N=4 L=length TABLEMODEL=m4lines_port_1

.model r_m4lines_port_1 sp N=4 SPACING=nonuniform VALTYPE=real
+ INTERPOLATION=spline
+ DATA = 700
+ 0           
+        7.125307581499241
+       0.6582573515222506
+        7.240611774399657
+       0.2632193777876676
+       0.9049689635842689
+        7.260698002125167
+      0.09583671641050204
+       0.2621687410268075
+       0.6381229697293089
+        7.123771171105417
+ 2e+08       
+        10.68201877115167
+       0.9946157371956403
+        10.81326330563095
+       0.3660339899515054
+        1.320626901512357
+        10.84730515947828
+       0.1294697305661216
+       0.3661100477548065
+       0.9619272712194548
+        10.68189060635637
+ 3e+08       
+        13.16803574153734
+        1.109954178989794
+        13.31046467609029
+       0.4219424955503647
+        1.585340516285568
+        13.35992152634004
+       0.1371198524336372
+       0.4225134002200347
+        1.069513144822761
+         13.1731876910728
+ 4e+08       
+        15.28931954253306
+        1.211161828205024
+        15.44485497542442
+       0.4615168841120507
+        1.810674229586082
+        15.51017825065585
+       0.1359146478887154
+       0.4621682891876723
+         1.16235258523667
+        15.30074569927285
+ 5e+08       
+        17.23827617060569
+        1.328149939031001
+        17.40287737113308
+       0.4984667968397924
+        2.018927854728304
+        17.48331042521506
+       0.1360167967970909
+       0.4992193370844184
+        1.271377188946144
+        17.25676113958263
+ 6e+08       
+        19.04053167131416
+        1.443688958021776
+        19.20826104488582
+       0.5344540644259039
+        2.210319212211583
+        19.30219922821312
+       0.1386519144449953
+       0.5354208454114844
+         1.37958808187008
+        19.06654865669796
+ 7e+08       
+        20.70445273123923
+        1.547240858004157
+         20.8708051510677
+        0.568647662247094
+          2.3850664757079
+        20.97654761982336
+       0.1425967315598275
+       0.5699046269442996
+        1.476292492398342
+        20.73818714333684
+ 8e+08       
+        22.24954237385164
+        1.639105672495061
+        22.41253133208093
+       0.6004411260143098
+        2.545906463109019
+         22.5288944092346
+       0.1465951712684085
+        0.602004122360006
+        1.561657633027426
+        22.29101695159466
+ 9e+08       
+        23.70406164368878
+        1.725396003225525
+        23.86365921771039
+       0.6298366535482756
+         2.69686650676344
+        23.99027107056513
+       0.1499098254081976
+       0.6316713990684375
+        1.641752357260546
+        23.75323760055377
+ 1e+09       
+        25.09881826889098
+        1.813812297971196
+         25.2555603810553
+       0.6572543727972335
+          2.8420576047071
+        25.39289332211205
+       0.1522719100559825
+       0.6592920546841539
+        1.724287576546017
+        25.15564670310066
+ 1.1e+09     
+        26.61064338580676
+        1.814247308517565
+         26.7946911284368
+       0.6397067901361019
+        2.968027014749377
+        26.95174280859415
+      0.09851101010940977
+       0.6426017260987825
+        1.721815523818056
+        26.67716583630504
+ 1.2e+09     
+        28.01603059080271
+        1.827339551655135
+        28.22767815453798
+       0.6287430067869149
+         3.09483431692426
+        28.40365202004607
+      0.04743746778408298
+       0.6324690871160593
+        1.732276761178209
+        28.09214772749482
+ 1.3e+09     
+        29.32225138975703
+        1.851001501568814
+        29.56020288138691
+       0.6241277227041446
+        3.220558578919787
+        29.75406351243931
+    0.0007324942406624901
+       0.6286123723671675
+        1.753397916245522
+        29.40772209571553
+ 1.4e+09     
+        30.53998343686792
+        1.883595494956915
+        30.80167860903124
+       0.6255025708135089
+        3.343932621460317
+        31.01221487002466
+      -0.0401238759735858
+       0.6306424244063351
+         1.78339427046146
+        30.63446860786138
+ 1.5e+09     
+        31.68127745959096
+        1.923871392735085
+        31.96322629230881
+       0.6324295873516875
+        3.464212136037881
+        32.18910716663267
+     -0.07393650324965861
+       0.6381047816798847
+        1.820907292238576
+         31.7843773412217
+ 1.6e+09     
+        32.75820504901645
+         1.97087125062971
+        33.05629695964056
+       0.6444206051759355
+        3.581042735478322
+        33.29611933336269
+     -0.09985152036851919
+       0.6505066087867775
+        1.864905203358586
+        32.86948924466887
+ 1.7e+09     
+        33.78203155110806
+        2.023835524646624
+        34.09180169213004
+       0.6609577944223872
+         3.69434320752572
+        34.34412996886095
+      -0.1173827764479888
+        0.667334450166742
+         1.91458354063016
+        33.90106196935354
+ 1.8e+09     
+        34.76276836554231
+         2.08212612270099
+        35.07961482465616
+       0.6815090402905255
+        3.804211561457782
+        35.34301279431811
+      -0.1264093396113209
+       0.6880669456554092
+        1.969282404205717
+        34.88911594626562
+ 1.9e+09     
+        35.70898473278334
+        2.145170492796838
+        36.02833753067396
+       0.7055404827738911
+        3.910854047871867
+        36.30139333060818
+      -0.1271478348612377
+       0.7121850559777035
+        2.028425272094096
+        35.84224100498983
+ 2e+09       
+         36.6277875189646
+        2.212425348526148
+        36.94523427965078
+       0.7325274786707239
+        4.014534342426679
+        37.22657955361237
+      -0.1201052898028345
+       0.7391811368724082
+        2.091478257296104
+        36.76757205216198
+ 2.1e+09     
+        37.52490278189876
+        2.283356366726134
+        37.83627782669812
+       0.7619645028551718
+          4.1155390727449
+        38.12460230784745
+      -0.1060191275056606
+       0.7685673744724063
+        2.157926190127184
+        37.67086749699634
+ 2.2e+09     
+        38.40481316159279
+        2.357429718233585
+         38.7062573063932
+       0.7933740506318374
+        4.214155880533366
+        39.00032004431139
+      -0.0857910290778563
+       0.7998835987083629
+        2.227261320665004
+        38.55664432716682
+ 2.3e+09     
+        39.27092040621169
+        2.434111668645648
+          39.558918456001
+         0.82631437839914
+        4.310660679992262
+         39.8575568032572
+     -0.06042073394800729
+       0.8327042518487164
+        2.298980764317327
+        39.42833899625085
+ 2.4e+09     
+        40.12571337386681
+        2.512873181880424
+        40.39711556724625
+       0.8603858604538619
+        4.405311387565559
+        40.69925286752114
+     -0.03094467485360264
+       0.8666442290014178
+        2.372589497030607
+        40.28847432179537
+ 2.5e+09     
+        40.97092956344301
+         2.59319720216322
+        41.22296225584404
+       0.8952357834446096
+        4.498346001943302
+        41.52761495946508
+     0.001617090570133595
+       0.9013633570627171
+        2.447606454849213
+        41.13882032255019
+ 2.6e+09     
+        41.80770346989358
+        2.674586955170286
+        42.03797330349713
+        0.930561494634403
+        4.589983440269053
+        42.34425799936312
+      0.03630365357710885
+       0.9365693818526653
+        2.523571970754486
+        41.98054218493232
+ 2.7e+09     
+        42.63669852176349
+        2.756574151960449
+        42.84319330151177
+       0.9661119270619937
+        4.680425966877555
+        43.15033391418539
+       0.0722450454440634
+       0.9720194490291736
+        2.600055340240486
+        42.81433203007306
+ 2.8e+09     
+        43.45822157075133
+        2.838726395876862
+        43.63931010150771
+         1.00168761901827
+        4.769862387546594
+        43.94664527256977
+       0.1086834009245546
+        1.007520166824703
+        2.676661739272815
+        43.64052338201492
+ 2.9e+09     
+        44.27232025560054
+        2.920653396863294
+        44.42675252487236
+        1.037139414225644
+        4.858471437774086
+         44.7337429897692
+       0.1449845801858739
+        1.042926414486769
+        2.753038037177604
+        44.45918860491278
+ 3e+09       
+         45.0788643363556
+        3.002011810090047
+         45.2057726658884
+        1.072366069210203
+         4.94642498332084
+        45.51200826115459
+        0.180641764611488
+        1.078139105893338
+         2.82887727286556
+        45.27022036324011
+ 3.1e+09     
+        45.87761248805042
+        3.082508657381571
+         45.9765136341538
+        1.107311008117669
+        5.033890789959847
+        46.28171943359432
+       0.2152727145417269
+        1.113102135735039
+        2.903921716689141
+         46.0733985621949
+ 3.2e+09     
+        46.66826619256321
+        3.161903379401085
+        46.73906385327989
+         1.14195845834657
+        5.121034719840747
+        47.04310484291642
+        0.248612355533581
+        1.147798731737491
+        2.977964541095383
+        46.86844438341758
+ 3.3e+09     
+        47.45051236751126
+        3.240008619330088
+        47.49349915667518
+        1.176329179533593
+        5.208022284500801
+        47.79638282294052
+       0.2805022085308289
+        1.182247417486619
+        3.050850186701604
+         47.6550630379302
+ 3.4e+09     
+         48.2240562847073
+        3.316689866942373
+        48.23991395933938
+        1.210475969851904
+        5.295019537361936
+        48.54179018689911
+       0.3108779554887593
+        1.216497762933185
+        3.122473548601738
+        48.43297677724763
+ 3.5e+09     
+        48.98864619938064
+        3.391864104473797
+        48.97844277736944
+        1.244479102281984
+        5.382193327462362
+        49.27960053271968
+       0.3397561803615896
+        1.250626068810728
+        3.192778129472754
+        49.20194957671158
+ 3.6e+09     
+        49.74409096175835
+        3.465497598856514
+        49.70927333922869
+        1.278441813033446
+        5.469710965307538
+        50.01013375064242
+       0.3672210775839713
+         1.28473110077106
+        3.261753317484545
+        49.96180475915108
+ 3.7e+09     
+        50.49027173122987
+        3.537602982929803
+        50.43265249864542
+        1.312485936788484
+        5.557739373762775
+        50.73375812447916
+       0.3934116959501228
+         1.31892996140483
+        3.329430951987851
+        50.71243667871722
+ 3.8e+09     
+        51.22714876990895
+        3.608235763730383
+        51.14888612434964
+        1.346747759914019
+         5.64644381339915
+        51.45088641801328
+       0.4185100952282705
+        1.353354164696035
+        3.395881340643041
+        51.45381744400794
+ 3.9e+09     
+        51.95476416214334
+        3.677490390273309
+        51.85833410742467
+        1.381374143423342
+        5.735986283382815
+        52.16196732235723
+       0.4427306391304815
+        1.388145958221314
+        3.461208889060377
+        52.18599953168088
+ 4e+09       
+        52.67324119165523
+        3.745496006893201
+        52.56140159017504
+        1.416518951897545
+        5.826523706081401
+        52.86747360301926
+       0.4663105300626444
+        1.423454923326888
+        3.525547498419938
+        52.90911502894075
+ 4.1e+09     
+        53.38278100891387
+        3.812412011232751
+         53.2585274766359
+        1.452339812161944
+         5.91820600600103
+        53.56788822142843
+       0.4895016045059064
+        1.459434872039583
+        3.589055877837819
+        53.62337214597506
+ 4.2e+09     
+        54.08365713725552
+        3.878423528072871
+        53.95017122934495
+        1.488995215532846
+        6.011174191378968
+        54.26368961088204
+       0.5125633478725358
+         1.49624105087953
+        3.651912906297969
+        54.32904955680735
+ 4.3e+09     
+        54.77620829575589
+        3.943736901056725
+        54.63679888564771
+        1.526641969241127
+        6.105558539788296
+        54.95533716028115
+       0.5357570489629999
+        1.534027655313603
+        3.714313163782199
+        55.02648905766144
+ 4.4e+09     
+        55.46082995810708
+        4.008575293700223
+        55.31886913708465
+        1.565432995674454
+        6.201476977763425
+        55.64325780307535
+       0.5593409918033252
+        1.572945653662674
+        3.776462733082661
+        55.71608697393474
+ 4.5e+09     
+        56.13796501781964
+        4.073174478805456
+        55.99682020688515
+        1.605515472003147
+        6.299033729335405
+        56.32783442941933
+       0.5835665723749215
+        1.613140915320876
+        3.838575353271164
+        56.39828469825344
+ 4.6e+09     
+         56.8080938889998
+        4.137778881630218
+        56.67105813516702
+        1.647029297377546
+        6.398318290369872
+        57.00939664536891
+        0.608675226015952
+        1.654752634774348
+        3.900868983798663
+        57.07355870083046
+ 4.7e+09     
+        57.47172433688065
+        4.202637927258955
+        57.34194694317511
+        1.690105870155452
+        6.499404765858337
+        57.68821420454953
+       0.6348960552556697
+        1.697912039880555
+        3.963562815775108
+        57.74241031755745
+ 4.8e+09     
+        58.12938130149065
+        4.268002727108806
+        58.00980100258663
+        1.734867153582697
+        6.602351587075514
+        58.36449324623878
+       0.6624440553811286
+        1.742741370071551
+        4.026874745257533
+        58.40535558920247
+ 4.9e+09     
+         58.7815969498301
+        4.334123124049253
+         58.6748797904545
+        1.781425005096767
+        6.707201606037532
+         59.0383752996096
+       0.6915188445281535
+        1.789353107564129
+        4.091019303420691
+        59.06291539526773
+ 5e+09       
+        59.42890116542048
+        4.401245100923241
+        59.33738507192263
+          1.8298807420483
+        6.813982547112167
+        59.70993886557795
+       0.7223038153901566
+        1.837849442347283
+         4.15620602117537
+        59.71560609724655
+ 5.1e+09     
+        60.07181265809823
+        4.469608544004088
+        59.99746042812683
+        1.880324915198573
+        6.922707780858378
+         60.3792032712624
+       0.7549656359633286
+        1.888321949762664
+         4.22263819175831
+        60.36393087729714
+ 5.2e+09     
+        60.71083085074016
+        4.539445341669852
+        60.65519294122812
+        1.932837260863839
+        7.033377373831102
+        61.04613441050103
+       0.7896540365825628
+        1.940851457986536
+        4.290511984355954
+        61.00837192910392
+ 5.3e+09     
+        61.34642867278809
+        4.610977789727905
+         61.3106167661926
+         1.98748680298964
+        7.145979360485458
+        61.71065193720658
+       0.8265018295430187
+        1.995508081738445
+        4.360015854963132
+        61.64938362762875
+ 5.4e+09     
+        61.97904636286248
+        4.684417268590816
+        61.96371826170574
+        2.044332077646006
+        7.260491179444415
+        62.37263746401296
+        0.865625115689213
+        2.052351398124013
+        4.431330197172062
+        62.28738677357827
+ 5.5e+09     
+        62.60908635450802
+        4.759963153909562
+        62.61444232055013
+        2.103421454290442
+        7.376881215980352
+        63.03194333212052
+       0.9071236394339106
+        2.111430740670075
+        4.504627175000945
+        62.92276397697992
+ 5.6e+09     
+        63.23690929054745
+        4.837801921158742
+        63.26269953121715
+        2.164793530480633
+        7.495110395121931
+        63.68840155366892
+       0.9510812597623346
+        2.172785588297306
+        4.580070681653375
+        63.55585621278696
+ 5.7e+09     
+        63.86283118313612
+        4.918106405741702
+         63.9083738144102
+        2.228477579353757
+        7.615133774715739
+        64.34183257901427
+       0.9975665099473585
+        2.236446027130619
+        4.657816371644729
+        64.18696055055452
+ 5.8e+09     
+        64.48712170905596
+         5.00103518305597
+        64.55133020649875
+        2.294494031959722
+        7.736902094374924
+        64.99205360174466
+        1.046633223042202
+        2.302433264586015
+         4.73801171847545
+        64.81632903073054
+ 5.9e+09     
+        65.11000360375309
+        5.086732037186938
+        65.19142250245577
+        2.362854979295624
+        7.860363243867806
+        65.63888617852378
+        1.098321203833946
+        2.370760176993413
+        4.820796055457706
+        65.44416863277063
+ 6e+09       
+        65.73165309383265
+        5.175325492031656
+        65.82850051891752
+        2.433564681525442
+          7.9854636225282
+        66.28216300425687
+        1.152656930944391
+        2.441431874019831
+        4.906300563015118
+        66.07064225588749
+ 6.1e+09     
+        66.35220128682029
+        5.266928384279259
+        66.46241678963888
+        2.506620074300433
+        8.112149369196352
+        66.92173374207687
+        1.209654275261021
+        2.514446265252985
+        4.994648171475374
+        66.69587061246607
+ 6.2e+09     
+        66.97173641955506
+        5.361637463409295
+        67.09303255719983
+        2.582011264272664
+        8.240367449621514
+        67.55746985981847
+        1.269315222967879
+         2.58979461641332
+        5.085953353878368
+        67.31993491754368
+ 6.3e+09     
+        67.59030685299726
+        5.459533009421231
+        67.72022297357162
+        2.659722007794363
+        8.370066594893625
+        68.18926846861085
+        1.331630593211335
+        2.667462084718887
+        5.180321788534064
+        67.94288024564709
+ 6.4e+09     
+        68.20792469177057
+        5.560678464126952
+        68.34388146597375
+        2.739730168419144
+        8.501198090150313
+        68.81705519444476
+        1.396580741952658
+         2.74742822488647
+        5.277849875959385
+         68.5647194188391
+ 6.5e+09     
+        68.82456990149298
+        5.665120076368447
+        68.96392326209545
+        2.822008150183405
+        8.633716417451106
+         69.4407861402497
+        1.464136244888501
+        2.829667459084224
+         5.37862409943783
+        69.18543728705667
+ 6.6e+09     
+        69.44019479575364
+        5.772886565344131
+        69.58028809953326
+        2.906523304771962
+        8.767579760326443
+        70.06044901480344
+        1.534258553508986
+         2.91414950583851
+        5.482720222828252
+        69.80499526345383
+ 6.7e+09     
+        70.05472876721556
+         5.88398880928919
+        70.19294216814762
+        2.993238311591556
+        8.902750380154544
+        70.67606351666345
+        1.606900619445454
+        3.000839764435097
+        5.590202323474759
+        70.42333598313087
+ 6.8e+09     
+         70.6680831433352
+        5.998419569037541
+        70.80187935128355
+        3.082111530519364
+         9.03919487629555
+        71.28768106739142
+        1.682007483260815
+        3.089699652744067
+        5.701121662196217
+        71.04038796279531
+ 6.9e+09     
+        71.28015605607217
+        6.116153257508798
+        71.40712184305383
+        3.173097327689229
+        9.176884342939774
+        71.89538398978608
+        1.759516824768566
+        3.180686897644484
+        5.815515396411252
+        71.65607015092023
+ 7e+09       
+        71.89083722612679
+        6.237145766951547
+        72.00872022494424
+        3.266146375150806
+        9.315794436036818
+        72.49928422476799
+        1.839359472840651
+         3.27375577833835
+        5.933405146512042
+          72.270296272171
+ 7.1e+09     
+        72.50001257504557
+        6.361334365886286
+         72.6067530867474
+        3.361205925606408
+        9.455905363593523
+        73.09952167596533
+        1.921459873480185
+        3.368857323832716
+        6.054795429638706
+         72.8829788855419
+ 7.2e+09     
+         73.1075685923566
+         6.48863767719511
+        73.20132627514619
+        3.458220063713571
+        9.597201812179874
+        73.69626226478491
+        2.005736515691938
+        3.465939466741762
+        6.179671979007892
+        73.49403309209484
+ 7.3e+09     
+        73.71339639913357
+        6.618955747774667
+        73.79257184898773
+        3.557129935649674
+        9.739672821769728
+        74.28969577152868
+        2.092102315377286
+        3.564947156326522
+        6.307999970874404
+        74.10337984479784
+ 7.4e+09     
+        74.31739546349684
+        6.752170218683012
+        74.38064681416688
+        3.657873958779306
+        9.883311620158342
+        74.88003353048362
+        2.180464958105526
+        3.665822434351169
+        6.439722184985984
+        74.71094882912749
+ 7.5e+09     
+        74.91947693708214
+        6.888144602860366
+          74.965731703719
+        3.760388013351596
+        10.02811542721234
+        75.46750603927421
+        2.270727202166538
+        3.768504477898193
+        6.574757127961361
+        75.31668089838418
+ 7.6e+09     
+        75.51956659405533
+        7.026724675370773
+        75.54802906077154
+        3.864605618190319
+         10.1740852381815
+        76.05236053542322
+        2.362787143785297
+        3.872929613749846
+        6.712997152279964
+        75.92053006164868
+ 7.7e+09     
+        76.11760736556221
+        7.167738978788487
+        76.12776187382002
+        3.970458092329363
+        10.32122559427424
+        76.63485858618868
+        2.456538446775206
+        3.979031309312719
+         6.85430660643157
+        76.52246503474666
+ 7.8e+09     
+        76.71356147235949
+        7.310999443931451
+        76.70517200576545
+        4.077874704494772
+        10.46954434770408
+        77.21527373143812
+        2.551870539222169
+        4.086740145333888
+        6.998520054123161
+        77.12247037524321
+ 7.9e+09     
+        77.30741216669277
+        7.456302123699527
+        77.28051865046493
+        4.186782812248233
+        10.61905242747104
+        77.79388921362045
+        2.648668780025345
+        4.195983775831738
+        7.145440602184552
+         77.7205472313066
+ 8e+09       
+        77.89916510124154
+        7.603428035403426
+        77.85407684344888
+        4.297107992489215
+        10.76976361125981
+        78.37099582377955
+        2.746814598275617
+        4.306686880739518
+        7.294838377848523
+        78.31671374120054
+ 8.1e+09     
+        78.48884934816147
+        7.752144104729648
+        78.42613604698447
+        4.408774164870209
+        10.92169430802207
+        78.94688988797449
+        2.846185608530278
+        4.418771116733483
+        7.446449196316323
+        78.91100512523407
+ 8.2e+09     
+        79.07651809503822
+        7.902204202453627
+         78.9969988239409
+        4.521703709516552
+        11.07486335506146
+        79.52187141436805
+        2.946655705048142
+        4.532155071591651
+        7.599973458877646
+        79.50347351531205
+ 8.3e+09     
+        79.66224904702966
+        8.053350263234544
+        79.56697960991661
+        4.635817580264339
+        11.22929183275286
+        80.09624241751997
+        3.048095137986031
+        4.646754227200043
+        7.755075320269967
+        80.09418756889589
+ 8.4e+09     
+         80.2461445657854
+         8.20531347434782
+        80.13640358882888
+        4.751035414441191
+        11.38500289939646
+        80.67030543301502
+        3.150370574432372
+        4.762480935995724
+        7.911382161398715
+        80.68323191437391
+ 8.5e+09     
+        80.82833157604793
+        8.357815521060834
+        80.70560567361328
+        4.867275640020183
+        11.54202164812412
+        81.24436223236638
+        3.253345146971129
+         4.87924441521033
+        8.068484399976846
+        81.27070647371144
+ 8.6e+09     
+        81.40896127035417
+        8.510569874552653
+        81.27492959077846
+        4.984455580780766
+        11.70037498723392
+        81.81871274511197
+        3.356878492237352
+        4.996950762760457
+        8.225935667098417
+          81.856725705991
+ 8.7e+09     
+        81.98820864110486
+        8.663283107825114
+        81.84472706527329
+        5.102491559915527
+        11.86009154482208
+        82.39365419210819
+        3.460826781649661
+        5.115502998028163
+        8.383253372278322
+        82.44141781224243
+ 8.8e+09     
+        82.56627186764226
+        8.815656224939064
+        82.41535710036042
+        5.221299002330656
+        12.02120159810199
+        82.96948043116831
+        3.565042746193711
+        5.234801130097082
+        8.539919673151905
+         83.0249239379891
+ 8.9e+09     
+        83.14337158399709
+        8.967385989119789
+        82.98718534591599
+        5.340792535705089
+        12.18373702734765
+        83.54648151339561
+        3.669375696790379
+        5.354742255266917
+        8.695382858947657
+        83.60739740537191
+ 9e+09       
+        83.71975005076642
+         9.11816623578563
+        83.56058354771598
+        5.460886090198797
+         12.3477312939678
+        84.12494344579007
+        3.773671541422305
+        5.475220684879424
+        8.849059149174154
+        84.18900300174192
+ 9.1e+09     
+        84.29567025227129
+        9.267689157322096
+        84.13592906975211
+        5.581492996538023
+        12.51321944180787
+        84.70514815299505
+        3.877772799819287
+        5.596128103665365
+        9.000334900876215
+        84.76991634638384
+ 9.2e+09     
+        84.87141493780564
+        9.415646547420291
+        84.71360448141264
+        5.702526082056561
+        12.68023812039311
+        85.28737362841527
+        3.981518616127047
+        5.717353757987443
+        9.148569209526103
+        85.35032335171408
+ 9.3e+09     
+        85.44728562349026
+        9.561730993970547
+        85.29399720138764
+        5.823897764136971
+        12.84882562846712
+        85.87189426240953
+        4.084744769611375
+        5.838784672526113
+         9.29309688034478
+        85.93041979002429
+ 9.4e+09     
+        86.02360156905358
+         9.70563701081611
+        85.87749919038045
+        5.945520140378954
+        13.01902197585333
+        86.45898133290018
+        4.187283683091433
+        5.960305893156823
+        9.433231738836444
+        86.51041097174267
+ 9.5e+09     
+        86.60069874179824
+        9.847062100074666
+        86.46450668507555
+        6.067305074722393
+        13.19086896137532
+        87.04890364159189
+         4.28896442845814
+        6.081800753019429
+        9.568270241812556
+        87.09051153639192
+ 9.6e+09     
+         87.1789287781081
+        9.985707738191149
+        87.05541996629881
+        6.189164278673196
+        13.36441026432296
+        87.64192827710868
+        4.389612728325017
+        6.203151158104932
+        9.697495343404647
+        87.67094535301604
+ 9.7e+09     
+        87.75865795112909
+        10.12128028035409
+        87.65064315485678
+        6.311009386721768
+          13.539691546748
+        88.23832148479728
+        4.489050952586055
+        6.324237888097972
+        9.820180564744604
+        88.25194552293681
+ 9.8e+09     
+         88.3402661517127
+        10.25349177935061
+        88.25058402916065
+         6.43275202500781
+        13.71676056372544
+        88.83834962175378
+        4.587098108424439
+        6.444940907737758
+        9.935594211311852
+        88.83375447434047
+ 9.9e+09     
+        88.92414588834043
+        10.38206071632772
+        88.85565385935926
+        6.554303872271262
+        13.89566727862136
+        89.44228017484008
+        4.683569822131056
+        6.565139683601735
+        10.04300367856163
+        89.41662413543753
+ 1e+10       
+        89.51070131055647
+        10.50671264223988
+        89.46626725335871
+        6.675576712139464
+        14.07646398037794
+         90.0503828191132
+        4.778278310957319
+        6.684713500991911
+        10.14167978447373
+        90.00081617082745
+ 1.01e+10    
+        89.76656630779395
+        10.48716020733756
+        89.77402248218526
+        6.715248657370281
+        14.14391881647264
+         90.3593360577789
+        4.818268850797589
+        6.724327181117335
+        10.11877366730872
+        90.26086269559036
+ 1.02e+10    
+        90.03445911212593
+        10.47578074797125
+         90.0930127065532
+        6.758554595860923
+        14.21649392243604
+        90.67955748419723
+        4.860620945394539
+        6.767577359511954
+        10.10409564299223
+        90.53288909469485
+ 1.03e+10    
+        90.31425124435104
+         10.4724687508715