* BEGIN ANSOFT HEADER
* node 1    trace_p_0_T1
* node 2    trace_n_0_T1
* node 3    trace_p_1_T1
* node 4    trace_n_1_T1
* node 5    trace_p_0_T2
* node 6    trace_n_0_T2
* node 7    trace_p_1_T2
* node 8    trace_n_1_T2
*   Format: HSPICE
*   Topckt: m4lines_HFSS_fws
*     Date: Wed Jun 03 22:25:34 2020
*    Notes: Frequency range: 1e+08 to 7e+10 Hz, 700 points
*         : Maximum number of poles: 10000
*         : S-Matrix fitting error tolerance: 0.001
*         : Causality check tolerance: auto
*         : Passivity enforcement: on (by iterated fitting)
*         : Causality enforcement: off
*         : Fitting method: FastFit
*         : Matrix fitting: By entire matrix (required by FastFit)
*         : Ensure Z-parameter accuracy: on
*         : Relative error control: off
*         : Common ground option: on
*         : Final fitting error: 0.002983
*         : Final model order: 296
* END ANSOFT HEADER

.subckt m4lines_HFSS_fws 1 2 3 4 5 6 7 8
Vam1 1 n2 dc 0
Rport1 n2 0 50 noise=0
Vam2 2 n4 dc 0
Rport2 n4 0 50 noise=0
Vam3 3 n6 dc 0
Rport3 n6 0 50 noise=0
Vam4 4 n8 dc 0
Rport4 n8 0 50 noise=0
Vam5 5 n10 dc 0
Rport5 n10 0 50 noise=0
Vam6 6 n12 dc 0
Rport6 n12 0 50 noise=0
Vam7 7 n14 dc 0
Rport7 n14 0 50 noise=0
Vam8 8 n16 dc 0
Rport8 n16 0 50 noise=0

Fi1 0 ni1 Vam1 50
Gi1 0 ni1 1 0 1
Rt1 ni1 0 1 noise=0
Fi2 0 ni2 Vam2 50
Gi2 0 ni2 2 0 1
Rt2 ni2 0 1 noise=0
Fi3 0 ni3 Vam3 50
Gi3 0 ni3 3 0 1
Rt3 ni3 0 1 noise=0
Fi4 0 ni4 Vam4 50
Gi4 0 ni4 4 0 1
Rt4 ni4 0 1 noise=0
Fi5 0 ni5 Vam5 50
Gi5 0 ni5 5 0 1
Rt5 ni5 0 1 noise=0
Fi6 0 ni6 Vam6 50
Gi6 0 ni6 6 0 1
Rt6 ni6 0 1 noise=0
Fi7 0 ni7 Vam7 50
Gi7 0 ni7 7 0 1
Rt7 ni7 0 1 noise=0
Fi8 0 ni8 Vam8 50
Gi8 0 ni8 8 0 1
Rt8 ni8 0 1 noise=0

Ca1 ns1 0 1e-12
Ra1 ns1 0 1.00629317801 noise=0
Ca2 ns2 0 1e-12
Ca3 ns3 0 1e-12
Ra2 ns2 0 3.23514518726 noise=0
Ra3 ns3 0 3.23514518726 noise=0
Ga2 ns2 0 ns3 0 -0.496444529287
Ga3 ns3 0 ns2 0 0.496444529287
Ca4 ns4 0 1e-12
Ca5 ns5 0 1e-12
Ra4 ns4 0 99.2967616202 noise=0
Ra5 ns5 0 99.2967616202 noise=0
Ga4 ns4 0 ns5 0 -0.503988242707
Ga5 ns5 0 ns4 0 0.503988242707
Ca6 ns6 0 1e-12
Ca7 ns7 0 1e-12
Ra6 ns6 0 46.6813218836 noise=0
Ra7 ns7 0 46.6813218836 noise=0
Ga6 ns6 0 ns7 0 -0.489302368603
Ga7 ns7 0 ns6 0 0.489302368603
Ca8 ns8 0 1e-12
Ca9 ns9 0 1e-12
Ra8 ns8 0 34.9646419918 noise=0
Ra9 ns9 0 34.9646419918 noise=0
Ga8 ns8 0 ns9 0 -0.465240916059
Ga9 ns9 0 ns8 0 0.465240916059
Ca10 ns10 0 1e-12
Ca11 ns11 0 1e-12
Ra10 ns10 0 30.2486203037 noise=0
Ra11 ns11 0 30.2486203037 noise=0
Ga10 ns10 0 ns11 0 -0.433297630249
Ga11 ns11 0 ns10 0 0.433297630249
Ca12 ns12 0 1e-12
Ca13 ns13 0 1e-12
Ra12 ns12 0 20.2165502189 noise=0
Ra13 ns13 0 20.2165502189 noise=0
Ga12 ns12 0 ns13 0 -0.415689448636
Ga13 ns13 0 ns12 0 0.415689448636
Ca14 ns14 0 1e-12
Ca15 ns15 0 1e-12
Ra14 ns14 0 40.8940460192 noise=0
Ra15 ns15 0 40.8940460192 noise=0
Ga14 ns14 0 ns15 0 -0.385147744818
Ga15 ns15 0 ns14 0 0.385147744818
Ca16 ns16 0 1e-12
Ca17 ns17 0 1e-12
Ra16 ns16 0 19.9117226261 noise=0
Ra17 ns17 0 19.9117226261 noise=0
Ga16 ns16 0 ns17 0 -0.346186931449
Ga17 ns17 0 ns16 0 0.346186931449
Ca18 ns18 0 1e-12
Ca19 ns19 0 1e-12
Ra18 ns18 0 22.383359742 noise=0
Ra19 ns19 0 22.383359742 noise=0
Ga18 ns18 0 ns19 0 -0.317452973336
Ga19 ns19 0 ns18 0 0.317452973336
Ca20 ns20 0 1e-12
Ca21 ns21 0 1e-12
Ra20 ns20 0 38.0479358576 noise=0
Ra21 ns21 0 38.0479358576 noise=0
Ga20 ns20 0 ns21 0 -0.29186865188
Ga21 ns21 0 ns20 0 0.29186865188
Ca22 ns22 0 1e-12
Ca23 ns23 0 1e-12
Ra22 ns22 0 12.4189583497 noise=0
Ra23 ns23 0 12.4189583497 noise=0
Ga22 ns22 0 ns23 0 -0.258059325384
Ga23 ns23 0 ns22 0 0.258059325384
Ca24 ns24 0 1e-12
Ca25 ns25 0 1e-12
Ra24 ns24 0 23.0324462867 noise=0
Ra25 ns25 0 23.0324462867 noise=0
Ga24 ns24 0 ns25 0 -0.212645067874
Ga25 ns25 0 ns24 0 0.212645067874
Ca26 ns26 0 1e-12
Ca27 ns27 0 1e-12
Ra26 ns26 0 34.7188374441 noise=0
Ra27 ns27 0 34.7188374441 noise=0
Ga26 ns26 0 ns27 0 -0.19740480044
Ga27 ns27 0 ns26 0 0.19740480044
Ca28 ns28 0 1e-12
Ca29 ns29 0 1e-12
Ra28 ns28 0 13.2633244371 noise=0
Ra29 ns29 0 13.2633244371 noise=0
Ga28 ns28 0 ns29 0 -0.121026208723
Ga29 ns29 0 ns28 0 0.121026208723
Ca30 ns30 0 1e-12
Ca31 ns31 0 1e-12
Ra30 ns30 0 18.9661932554 noise=0
Ra31 ns31 0 18.9661932554 noise=0
Ga30 ns30 0 ns31 0 -0.10544020576
Ga31 ns31 0 ns30 0 0.10544020576
Ca32 ns32 0 1e-12
Ca33 ns33 0 1e-12
Ra32 ns32 0 32.7496561073 noise=0
Ra33 ns33 0 32.7496561073 noise=0
Ga32 ns32 0 ns33 0 -0.100351912105
Ga33 ns33 0 ns32 0 0.100351912105
Ca34 ns34 0 1e-12
Ra34 ns34 0 24.8522946037 noise=0
Ca35 ns35 0 1e-12
Ca36 ns36 0 1e-12
Ra35 ns35 0 27.1312266605 noise=0
Ra36 ns36 0 27.1312266605 noise=0
Ga35 ns35 0 ns36 0 -0.0077220911993
Ga36 ns36 0 ns35 0 0.0077220911993
Ca37 ns37 0 1e-12
Ra37 ns37 0 1255.41863382 noise=0
Ca38 ns38 0 1e-12
Ra38 ns38 0 1.00629317801 noise=0
Ca39 ns39 0 1e-12
Ca40 ns40 0 1e-12
Ra39 ns39 0 3.23514518726 noise=0
Ra40 ns40 0 3.23514518726 noise=0
Ga39 ns39 0 ns40 0 -0.496444529287
Ga40 ns40 0 ns39 0 0.496444529287
Ca41 ns41 0 1e-12
Ca42 ns42 0 1e-12
Ra41 ns41 0 99.2967616202 noise=0
Ra42 ns42 0 99.2967616202 noise=0
Ga41 ns41 0 ns42 0 -0.503988242707
Ga42 ns42 0 ns41 0 0.503988242707
Ca43 ns43 0 1e-12
Ca44 ns44 0 1e-12
Ra43 ns43 0 46.6813218836 noise=0
Ra44 ns44 0 46.6813218836 noise=0
Ga43 ns43 0 ns44 0 -0.489302368603
Ga44 ns44 0 ns43 0 0.489302368603
Ca45 ns45 0 1e-12
Ca46 ns46 0 1e-12
Ra45 ns45 0 34.9646419918 noise=0
Ra46 ns46 0 34.9646419918 noise=0
Ga45 ns45 0 ns46 0 -0.465240916059
Ga46 ns46 0 ns45 0 0.465240916059
Ca47 ns47 0 1e-12
Ca48 ns48 0 1e-12
Ra47 ns47 0 30.2486203037 noise=0
Ra48 ns48 0 30.2486203037 noise=0
Ga47 ns47 0 ns48 0 -0.433297630249
Ga48 ns48 0 ns47 0 0.433297630249
Ca49 ns49 0 1e-12
Ca50 ns50 0 1e-12
Ra49 ns49 0 20.2165502189 noise=0
Ra50 ns50 0 20.2165502189 noise=0
Ga49 ns49 0 ns50 0 -0.415689448636
Ga50 ns50 0 ns49 0 0.415689448636
Ca51 ns51 0 1e-12
Ca52 ns52 0 1e-12
Ra51 ns51 0 40.8940460192 noise=0
Ra52 ns52 0 40.8940460192 noise=0
Ga51 ns51 0 ns52 0 -0.385147744818
Ga52 ns52 0 ns51 0 0.385147744818
Ca53 ns53 0 1e-12
Ca54 ns54 0 1e-12
Ra53 ns53 0 19.9117226261 noise=0
Ra54 ns54 0 19.9117226261 noise=0
Ga53 ns53 0 ns54 0 -0.346186931449
Ga54 ns54 0 ns53 0 0.346186931449
Ca55 ns55 0 1e-12
Ca56 ns56 0 1e-12
Ra55 ns55 0 22.383359742 noise=0
Ra56 ns56 0 22.383359742 noise=0
Ga55 ns55 0 ns56 0 -0.317452973336
Ga56 ns56 0 ns55 0 0.317452973336
Ca57 ns57 0 1e-12
Ca58 ns58 0 1e-12
Ra57 ns57 0 38.0479358576 noise=0
Ra58 ns58 0 38.0479358576 noise=0
Ga57 ns57 0 ns58 0 -0.29186865188
Ga58 ns58 0 ns57 0 0.29186865188
Ca59 ns59 0 1e-12
Ca60 ns60 0 1e-12
Ra59 ns59 0 12.4189583497 noise=0
Ra60 ns60 0 12.4189583497 noise=0
Ga59 ns59 0 ns60 0 -0.258059325384
Ga60 ns60 0 ns59 0 0.258059325384
Ca61 ns61 0 1e-12
Ca62 ns62 0 1e-12
Ra61 ns61 0 23.0324462867 noise=0
Ra62 ns62 0 23.0324462867 noise=0
Ga61 ns61 0 ns62 0 -0.212645067874
Ga62 ns62 0 ns61 0 0.212645067874
Ca63 ns63 0 1e-12
Ca64 ns64 0 1e-12
Ra63 ns63 0 34.7188374441 noise=0
Ra64 ns64 0 34.7188374441 noise=0
Ga63 ns63 0 ns64 0 -0.19740480044
Ga64 ns64 0 ns63 0 0.19740480044
Ca65 ns65 0 1e-12
Ca66 ns66 0 1e-12
Ra65 ns65 0 13.2633244371 noise=0
Ra66 ns66 0 13.2633244371 noise=0
Ga65 ns65 0 ns66 0 -0.121026208723
Ga66 ns66 0 ns65 0 0.121026208723
Ca67 ns67 0 1e-12
Ca68 ns68 0 1e-12
Ra67 ns67 0 18.9661932554 noise=0
Ra68 ns68 0 18.9661932554 noise=0
Ga67 ns67 0 ns68 0 -0.10544020576
Ga68 ns68 0 ns67 0 0.10544020576
Ca69 ns69 0 1e-12
Ca70 ns70 0 1e-12
Ra69 ns69 0 32.7496561073 noise=0
Ra70 ns70 0 32.7496561073 noise=0
Ga69 ns69 0 ns70 0 -0.100351912105
Ga70 ns70 0 ns69 0 0.100351912105
Ca71 ns71 0 1e-12
Ra71 ns71 0 24.8522946037 noise=0
Ca72 ns72 0 1e-12
Ca73 ns73 0 1e-12
Ra72 ns72 0 27.1312266605 noise=0
Ra73 ns73 0 27.1312266605 noise=0
Ga72 ns72 0 ns73 0 -0.0077220911993
Ga73 ns73 0 ns72 0 0.0077220911993
Ca74 ns74 0 1e-12
Ra74 ns74 0 1255.41863382 noise=0
Ca75 ns75 0 1e-12
Ra75 ns75 0 1.00629317801 noise=0
Ca76 ns76 0 1e-12
Ca77 ns77 0 1e-12
Ra76 ns76 0 3.23514518726 noise=0
Ra77 ns77 0 3.23514518726 noise=0
Ga76 ns76 0 ns77 0 -0.496444529287
Ga77 ns77 0 ns76 0 0.496444529287
Ca78 ns78 0 1e-12
Ca79 ns79 0 1e-12
Ra78 ns78 0 99.2967616202 noise=0
Ra79 ns79 0 99.2967616202 noise=0
Ga78 ns78 0 ns79 0 -0.503988242707
Ga79 ns79 0 ns78 0 0.503988242707
Ca80 ns80 0 1e-12
Ca81 ns81 0 1e-12
Ra80 ns80 0 46.6813218836 noise=0
Ra81 ns81 0 46.6813218836 noise=0
Ga80 ns80 0 ns81 0 -0.489302368603
Ga81 ns81 0 ns80 0 0.489302368603
Ca82 ns82 0 1e-12
Ca83 ns83 0 1e-12
Ra82 ns82 0 34.9646419918 noise=0
Ra83 ns83 0 34.9646419918 noise=0
Ga82 ns82 0 ns83 0 -0.465240916059
Ga83 ns83 0 ns82 0 0.465240916059
Ca84 ns84 0 1e-12
Ca85 ns85 0 1e-12
Ra84 ns84 0 30.2486203037 noise=0
Ra85 ns85 0 30.2486203037 noise=0
Ga84 ns84 0 ns85 0 -0.433297630249
Ga85 ns85 0 ns84 0 0.433297630249
Ca86 ns86 0 1e-12
Ca87 ns87 0 1e-12
Ra86 ns86 0 20.2165502189 noise=0
Ra87 ns87 0 20.2165502189 noise=0
Ga86 ns86 0 ns87 0 -0.415689448636
Ga87 ns87 0 ns86 0 0.415689448636
Ca88 ns88 0 1e-12
Ca89 ns89 0 1e-12
Ra88 ns88 0 40.8940460192 noise=0
Ra89 ns89 0 40.8940460192 noise=0
Ga88 ns88 0 ns89 0 -0.385147744818
Ga89 ns89 0 ns88 0 0.385147744818
Ca90 ns90 0 1e-12
Ca91 ns91 0 1e-12
Ra90 ns90 0 19.9117226261 noise=0
Ra91 ns91 0 19.9117226261 noise=0
Ga90 ns90 0 ns91 0 -0.346186931449
Ga91 ns91 0 ns90 0 0.346186931449
Ca92 ns92 0 1e-12
Ca93 ns93 0 1e-12
Ra92 ns92 0 22.383359742 noise=0
Ra93 ns93 0 22.383359742 noise=0
Ga92 ns92 0 ns93 0 -0.317452973336
Ga93 ns93 0 ns92 0 0.317452973336
Ca94 ns94 0 1e-12
Ca95 ns95 0 1e-12
Ra94 ns94 0 38.0479358576 noise=0
Ra95 ns95 0 38.0479358576 noise=0
Ga94 ns94 0 ns95 0 -0.29186865188
Ga95 ns95 0 ns94 0 0.29186865188
Ca96 ns96 0 1e-12
Ca97 ns97 0 1e-12
Ra96 ns96 0 12.4189583497 noise=0
Ra97 ns97 0 12.4189583497 noise=0
Ga96 ns96 0 ns97 0 -0.258059325384
Ga97 ns97 0 ns96 0 0.258059325384
Ca98 ns98 0 1e-12
Ca99 ns99 0 1e-12
Ra98 ns98 0 23.0324462867 noise=0
Ra99 ns99 0 23.0324462867 noise=0
Ga98 ns98 0 ns99 0 -0.212645067874
Ga99 ns99 0 ns98 0 0.212645067874
Ca100 ns100 0 1e-12
Ca101 ns101 0 1e-12
Ra100 ns100 0 34.7188374441 noise=0
Ra101 ns101 0 34.7188374441 noise=0
Ga100 ns100 0 ns101 0 -0.19740480044
Ga101 ns101 0 ns100 0 0.19740480044
Ca102 ns102 0 1e-12
Ca103 ns103 0 1e-12
Ra102 ns102 0 13.2633244371 noise=0
Ra103 ns103 0 13.2633244371 noise=0
Ga102 ns102 0 ns103 0 -0.121026208723
Ga103 ns103 0 ns102 0 0.121026208723
Ca104 ns104 0 1e-12
Ca105 ns105 0 1e-12
Ra104 ns104 0 18.9661932554 noise=0
Ra105 ns105 0 18.9661932554 noise=0
Ga104 ns104 0 ns105 0 -0.10544020576
Ga105 ns105 0 ns104 0 0.10544020576
Ca106 ns106 0 1e-12
Ca107 ns107 0 1e-12
Ra106 ns106 0 32.7496561073 noise=0
Ra107 ns107 0 32.7496561073 noise=0
Ga106 ns106 0 ns107 0 -0.100351912105
Ga107 ns107 0 ns106 0 0.100351912105
Ca108 ns108 0 1e-12
Ra108 ns108 0 24.8522946037 noise=0
Ca109 ns109 0 1e-12
Ca110 ns110 0 1e-12
Ra109 ns109 0 27.1312266605 noise=0
Ra110 ns110 0 27.1312266605 noise=0
Ga109 ns109 0 ns110 0 -0.0077220911993
Ga110 ns110 0 ns109 0 0.0077220911993
Ca111 ns111 0 1e-12
Ra111 ns111 0 1255.41863382 noise=0
Ca112 ns112 0 1e-12
Ra112 ns112 0 1.00629317801 noise=0
Ca113 ns113 0 1e-12
Ca114 ns114 0 1e-12
Ra113 ns113 0 3.23514518726 noise=0
Ra114 ns114 0 3.23514518726 noise=0
Ga113 ns113 0 ns114 0 -0.496444529287
Ga114 ns114 0 ns113 0 0.496444529287
Ca115 ns115 0 1e-12
Ca116 ns116 0 1e-12
Ra115 ns115 0 99.2967616202 noise=0
Ra116 ns116 0 99.2967616202 noise=0
Ga115 ns115 0 ns116 0 -0.503988242707
Ga116 ns116 0 ns115 0 0.503988242707
Ca117 ns117 0 1e-12
Ca118 ns118 0 1e-12
Ra117 ns117 0 46.6813218836 noise=0
Ra118 ns118 0 46.6813218836 noise=0
Ga117 ns117 0 ns118 0 -0.489302368603
Ga118 ns118 0 ns117 0 0.489302368603
Ca119 ns119 0 1e-12
Ca120 ns120 0 1e-12
Ra119 ns119 0 34.9646419918 noise=0
Ra120 ns120 0 34.9646419918 noise=0
Ga119 ns119 0 ns120 0 -0.465240916059
Ga120 ns120 0 ns119 0 0.465240916059
Ca121 ns121 0 1e-12
Ca122 ns122 0 1e-12
Ra121 ns121 0 30.2486203037 noise=0
Ra122 ns122 0 30.2486203037 noise=0
Ga121 ns121 0 ns122 0 -0.433297630249
Ga122 ns122 0 ns121 0 0.433297630249
Ca123 ns123 0 1e-12
Ca124 ns124 0 1e-12
Ra123 ns123 0 20.2165502189 noise=0
Ra124 ns124 0 20.2165502189 noise=0
Ga123 ns123 0 ns124 0 -0.415689448636
Ga124 ns124 0 ns123 0 0.415689448636
Ca125 ns125 0 1e-12
Ca126 ns126 0 1e-12
Ra125 ns125 0 40.8940460192 noise=0
Ra126 ns126 0 40.8940460192 noise=0
Ga125 ns125 0 ns126 0 -0.385147744818
Ga126 ns126 0 ns125 0 0.385147744818
Ca127 ns127 0 1e-12
Ca128 ns128 0 1e-12
Ra127 ns127 0 19.9117226261 noise=0
Ra128 ns128 0 19.9117226261 noise=0
Ga127 ns127 0 ns128 0 -0.346186931449
Ga128 ns128 0 ns127 0 0.346186931449
Ca129 ns129 0 1e-12
Ca130 ns130 0 1e-12
Ra129 ns129 0 22.383359742 noise=0
Ra130 ns130 0 22.383359742 noise=0
Ga129 ns129 0 ns130 0 -0.317452973336
Ga130 ns130 0 ns129 0 0.317452973336
Ca131 ns131 0 1e-12
Ca132 ns132 0 1e-12
Ra131 ns131 0 38.0479358576 noise=0
Ra132 ns132 0 38.0479358576 noise=0
Ga131 ns131 0 ns132 0 -0.29186865188
Ga132 ns132 0 ns131 0 0.29186865188
Ca133 ns133 0 1e-12
Ca134 ns134 0 1e-12
Ra133 ns133 0 12.4189583497 noise=0
Ra134 ns134 0 12.4189583497 noise=0
Ga133 ns133 0 ns134 0 -0.258059325384
Ga134 ns134 0 ns133 0 0.258059325384
Ca135 ns135 0 1e-12
Ca136 ns136 0 1e-12
Ra135 ns135 0 23.0324462867 noise=0
Ra136 ns136 0 23.0324462867 noise=0
Ga135 ns135 0 ns136 0 -0.212645067874
Ga136 ns136 0 ns135 0 0.212645067874
Ca137 ns137 0 1e-12
Ca138 ns138 0 1e-12
Ra137 ns137 0 34.7188374441 noise=0
Ra138 ns138 0 34.7188374441 noise=0
Ga137 ns137 0 ns138 0 -0.19740480044
Ga138 ns138 0 ns137 0 0.19740480044
Ca139 ns139 0 1e-12
Ca140 ns140 0 1e-12
Ra139 ns139 0 13.2633244371 noise=0
Ra140 ns140 0 13.2633244371 noise=0
Ga139 ns139 0 ns140 0 -0.121026208723
Ga140 ns140 0 ns139 0 0.121026208723
Ca141 ns141 0 1e-12
Ca142 ns142 0 1e-12
Ra141 ns141 0 18.9661932554 noise=0
Ra142 ns142 0 18.9661932554 noise=0
Ga141 ns141 0 ns142 0 -0.10544020576
Ga142 ns142 0 ns141 0 0.10544020576
Ca143 ns143 0 1e-12
Ca144 ns144 0 1e-12
Ra143 ns143 0 32.7496561073 noise=0
Ra144 ns144 0 32.7496561073 noise=0
Ga143 ns143 0 ns144 0 -0.100351912105
Ga144 ns144 0 ns143 0 0.100351912105
Ca145 ns145 0 1e-12
Ra145 ns145 0 24.8522946037 noise=0
Ca146 ns146 0 1e-12
Ca147 ns147 0 1e-12
Ra146 ns146 0 27.1312266605 noise=0
Ra147 ns147 0 27.1312266605 noise=0
Ga146 ns146 0 ns147 0 -0.0077220911993
Ga147 ns147 0 ns146 0 0.0077220911993
Ca148 ns148 0 1e-12
Ra148 ns148 0 1255.41863382 noise=0
Ca149 ns149 0 1e-12
Ra149 ns149 0 1.00629317801 noise=0
Ca150 ns150 0 1e-12
Ca151 ns151 0 1e-12
Ra150 ns150 0 3.23514518726 noise=0
Ra151 ns151 0 3.23514518726 noise=0
Ga150 ns150 0 ns151 0 -0.496444529287
Ga151 ns151 0 ns150 0 0.496444529287
Ca152 ns152 0 1e-12
Ca153 ns153 0 1e-12
Ra152 ns152 0 99.2967616202 noise=0
Ra153 ns153 0 99.2967616202 noise=0
Ga152 ns152 0 ns153 0 -0.503988242707
Ga153 ns153 0 ns152 0 0.503988242707
Ca154 ns154 0 1e-12
Ca155 ns155 0 1e-12
Ra154 ns154 0 46.6813218836 noise=0
Ra155 ns155 0 46.6813218836 noise=0
Ga154 ns154 0 ns155 0 -0.489302368603
Ga155 ns155 0 ns154 0 0.489302368603
Ca156 ns156 0 1e-12
Ca157 ns157 0 1e-12
Ra156 ns156 0 34.9646419918 noise=0
Ra157 ns157 0 34.9646419918 noise=0
Ga156 ns156 0 ns157 0 -0.465240916059
Ga157 ns157 0 ns156 0 0.465240916059
Ca158 ns158 0 1e-12
Ca159 ns159 0 1e-12
Ra158 ns158 0 30.2486203037 noise=0
Ra159 ns159 0 30.2486203037 noise=0
Ga158 ns158 0 ns159 0 -0.433297630249
Ga159 ns159 0 ns158 0 0.433297630249
Ca160 ns160 0 1e-12
Ca161 ns161 0 1e-12
Ra160 ns160 0 20.2165502189 noise=0
Ra161 ns161 0 20.2165502189 noise=0
Ga160 ns160 0 ns161 0 -0.415689448636
Ga161 ns161 0 ns160 0 0.415689448636
Ca162 ns162 0 1e-12
Ca163 ns163 0 1e-12
Ra162 ns162 0 40.8940460192 noise=0
Ra163 ns163 0 40.8940460192 noise=0
Ga162 ns162 0 ns163 0 -0.385147744818
Ga163 ns163 0 ns162 0 0.385147744818
Ca164 ns164 0 1e-12
Ca165 ns165 0 1e-12
Ra164 ns164 0 19.9117226261 noise=0
Ra165 ns165 0 19.9117226261 noise=0
Ga164 ns164 0 ns165 0 -0.346186931449
Ga165 ns165 0 ns164 0 0.346186931449
Ca166 ns166 0 1e-12
Ca167 ns167 0 1e-12
Ra166 ns166 0 22.383359742 noise=0
Ra167 ns167 0 22.383359742 noise=0
Ga166 ns166 0 ns167 0 -0.317452973336
Ga167 ns167 0 ns166 0 0.317452973336
Ca168 ns168 0 1e-12
Ca169 ns169 0 1e-12
Ra168 ns168 0 38.0479358576 noise=0
Ra169 ns169 0 38.0479358576 noise=0
Ga168 ns168 0 ns169 0 -0.29186865188
Ga169 ns169 0 ns168 0 0.29186865188
Ca170 ns170 0 1e-12
Ca171 ns171 0 1e-12
Ra170 ns170 0 12.4189583497 noise=0
Ra171 ns171 0 12.4189583497 noise=0
Ga170 ns170 0 ns171 0 -0.258059325384
Ga171 ns171 0 ns170 0 0.258059325384
Ca172 ns172 0 1e-12
Ca173 ns173 0 1e-12
Ra172 ns172 0 23.0324462867 noise=0
Ra173 ns173 0 23.0324462867 noise=0
Ga172 ns172 0 ns173 0 -0.212645067874
Ga173 ns173 0 ns172 0 0.212645067874
Ca174 ns174 0 1e-12
Ca175 ns175 0 1e-12
Ra174 ns174 0 34.7188374441 noise=0
Ra175 ns175 0 34.7188374441 noise=0
Ga174 ns174 0 ns175 0 -0.19740480044
Ga175 ns175 0 ns174 0 0.19740480044
Ca176 ns176 0 1e-12
Ca177 ns177 0 1e-12
Ra176 ns176 0 13.2633244371 noise=0
Ra177 ns177 0 13.2633244371 noise=0
Ga176 ns176 0 ns177 0 -0.121026208723
Ga177 ns177 0 ns176 0 0.121026208723
Ca178 ns178 0 1e-12
Ca179 ns179 0 1e-12
Ra178 ns178 0 18.9661932554 noise=0
Ra179 ns179 0 18.9661932554 noise=0
Ga178 ns178 0 ns179 0 -0.10544020576
Ga179 ns179 0 ns178 0 0.10544020576
Ca180 ns180 0 1e-12
Ca181 ns181 0 1e-12
Ra180 ns180 0 32.7496561073 noise=0
Ra181 ns181 0 32.7496561073 noise=0
Ga180 ns180 0 ns181 0 -0.100351912105
Ga181 ns181 0 ns180 0 0.100351912105
Ca182 ns182 0 1e-12
Ra182 ns182 0 24.8522946037 noise=0
Ca183 ns183 0 1e-12
Ca184 ns184 0 1e-12
Ra183 ns183 0 27.1312266605 noise=0
Ra184 ns184 0 27.1312266605 noise=0
Ga183 ns183 0 ns184 0 -0.0077220911993
Ga184 ns184 0 ns183 0 0.0077220911993
Ca185 ns185 0 1e-12
Ra185 ns185 0 1255.41863382 noise=0
Ca186 ns186 0 1e-12
Ra186 ns186 0 1.00629317801 noise=0
Ca187 ns187 0 1e-12
Ca188 ns188 0 1e-12
Ra187 ns187 0 3.23514518726 noise=0
Ra188 ns188 0 3.23514518726 noise=0
Ga187 ns187 0 ns188 0 -0.496444529287
Ga188 ns188 0 ns187 0 0.496444529287
Ca189 ns189 0 1e-12
Ca190 ns190 0 1e-12
Ra189 ns189 0 99.2967616202 noise=0
Ra190 ns190 0 99.2967616202 noise=0
Ga189 ns189 0 ns190 0 -0.503988242707
Ga190 ns190 0 ns189 0 0.503988242707
Ca191 ns191 0 1e-12
Ca192 ns192 0 1e-12
Ra191 ns191 0 46.6813218836 noise=0
Ra192 ns192 0 46.6813218836 noise=0
Ga191 ns191 0 ns192 0 -0.489302368603
Ga192 ns192 0 ns191 0 0.489302368603
Ca193 ns193 0 1e-12
Ca194 ns194 0 1e-12
Ra193 ns193 0 34.9646419918 noise=0
Ra194 ns194 0 34.9646419918 noise=0
Ga193 ns193 0 ns194 0 -0.465240916059
Ga194 ns194 0 ns193 0 0.465240916059
Ca195 ns195 0 1e-12
Ca196 ns196 0 1e-12
Ra195 ns195 0 30.2486203037 noise=0
Ra196 ns196 0 30.2486203037 noise=0
Ga195 ns195 0 ns196 0 -0.433297630249
Ga196 ns196 0 ns195 0 0.433297630249
Ca197 ns197 0 1e-12
Ca198 ns198 0 1e-12
Ra197 ns197 0 20.2165502189 noise=0
Ra198 ns198 0 20.2165502189 noise=0
Ga197 ns197 0 ns198 0 -0.415689448636
Ga198 ns198 0 ns197 0 0.415689448636
Ca199 ns199 0 1e-12
Ca200 ns200 0 1e-12
Ra199 ns199 0 40.8940460192 noise=0
Ra200 ns200 0 40.8940460192 noise=0
Ga199 ns199 0 ns200 0 -0.385147744818
Ga200 ns200 0 ns199 0 0.385147744818
Ca201 ns201 0 1e-12
Ca202 ns202 0 1e-12
Ra201 ns201 0 19.9117226261 noise=0
Ra202 ns202 0 19.9117226261 noise=0
Ga201 ns201 0 ns202 0 -0.346186931449
Ga202 ns202 0 ns201 0 0.346186931449
Ca203 ns203 0 1e-12
Ca204 ns204 0 1e-12
Ra203 ns203 0 22.383359742 noise=0
Ra204 ns204 0 22.383359742 noise=0
Ga203 ns203 0 ns204 0 -0.317452973336
Ga204 ns204 0 ns203 0 0.317452973336
Ca205 ns205 0 1e-12
Ca206 ns206 0 1e-12
Ra205 ns205 0 38.0479358576 noise=0
Ra206 ns206 0 38.0479358576 noise=0
Ga205 ns205 0 ns206 0 -0.29186865188
Ga206 ns206 0 ns205 0 0.29186865188
Ca207 ns207 0 1e-12
Ca208 ns208 0 1e-12
Ra207 ns207 0 12.4189583497 noise=0
Ra208 ns208 0 12.4189583497 noise=0
Ga207 ns207 0 ns208 0 -0.258059325384
Ga208 ns208 0 ns207 0 0.258059325384
Ca209 ns209 0 1e-12
Ca210 ns210 0 1e-12
Ra209 ns209 0 23.0324462867 noise=0
Ra210 ns210 0 23.0324462867 noise=0
Ga209 ns209 0 ns210 0 -0.212645067874
Ga210 ns210 0 ns209 0 0.212645067874
Ca211 ns211 0 1e-12
Ca212 ns212 0 1e-12
Ra211 ns211 0 34.7188374441 noise=0
Ra212 ns212 0 34.7188374441 noise=0
Ga211 ns211 0 ns212 0 -0.19740480044
Ga212 ns212 0 ns211 0 0.19740480044
Ca213 ns213 0 1e-12
Ca214 ns214 0 1e-12
Ra213 ns213 0 13.2633244371 noise=0
Ra214 ns214 0 13.2633244371 noise=0
Ga213 ns213 0 ns214 0 -0.121026208723
Ga214 ns214 0 ns213 0 0.121026208723
Ca215 ns215 0 1e-12
Ca216 ns216 0 1e-12
Ra215 ns215 0 18.9661932554 noise=0
Ra216 ns216 0 18.9661932554 noise=0
Ga215 ns215 0 ns216 0 -0.10544020576
Ga216 ns216 0 ns215 0 0.10544020576
Ca217 ns217 0 1e-12
Ca218 ns218 0 1e-12
Ra217 ns217 0 32.7496561073 noise=0
Ra218 ns218 0 32.7496561073 noise=0
Ga217 ns217 0 ns218 0 -0.100351912105
Ga218 ns218 0 ns217 0 0.100351912105
Ca219 ns219 0 1e-12
Ra219 ns219 0 24.8522946037 noise=0
Ca220 ns220 0 1e-12
Ca221 ns221 0 1e-12
Ra220 ns220 0 27.1312266605 noise=0
Ra221 ns221 0 27.1312266605 noise=0
Ga220 ns220 0 ns221 0 -0.0077220911993
Ga221 ns221 0 ns220 0 0.0077220911993
Ca222 ns222 0 1e-12
Ra222 ns222 0 1255.41863382 noise=0
Ca223 ns223 0 1e-12
Ra223 ns223 0 1.00629317801 noise=0
Ca224 ns224 0 1e-12
Ca225 ns225 0 1e-12
Ra224 ns224 0 3.23514518726 noise=0
Ra225 ns225 0 3.23514518726 noise=0
Ga224 ns224 0 ns225 0 -0.496444529287
Ga225 ns225 0 ns224 0 0.496444529287
Ca226 ns226 0 1e-12
Ca227 ns227 0 1e-12
Ra226 ns226 0 99.2967616202 noise=0
Ra227 ns227 0 99.2967616202 noise=0
Ga226 ns226 0 ns227 0 -0.503988242707
Ga227 ns227 0 ns226 0 0.503988242707
Ca228 ns228 0 1e-12
Ca229 ns229 0 1e-12
Ra228 ns228 0 46.6813218836 noise=0
Ra229 ns229 0 46.6813218836 noise=0
Ga228 ns228 0 ns229 0 -0.489302368603
Ga229 ns229 0 ns228 0 0.489302368603
Ca230 ns230 0 1e-12
Ca231 ns231 0 1e-12
Ra230 ns230 0 34.9646419918 noise=0
Ra231 ns231 0 34.9646419918 noise=0
Ga230 ns230 0 ns231 0 -0.465240916059
Ga231 ns231 0 ns230 0 0.465240916059
Ca232 ns232 0 1e-12
Ca233 ns233 0 1e-12
Ra232 ns232 0 30.2486203037 noise=0
Ra233 ns233 0 30.2486203037 noise=0
Ga232 ns232 0 ns233 0 -0.433297630249
Ga233 ns233 0 ns232 0 0.433297630249
Ca234 ns234 0 1e-12
Ca235 ns235 0 1e-12
Ra234 ns234 0 20.2165502189 noise=0
Ra235 ns235 0 20.2165502189 noise=0
Ga234 ns234 0 ns235 0 -0.415689448636
Ga235 ns235 0 ns234 0 0.415689448636
Ca236 ns236 0 1e-12
Ca237 ns237 0 1e-12
Ra236 ns236 0 40.8940460192 noise=0
Ra237 ns237 0 40.8940460192 noise=0
Ga236 ns236 0 ns237 0 -0.385147744818
Ga237 ns237 0 ns236 0 0.385147744818
Ca238 ns238 0 1e-12
Ca239 ns239 0 1e-12
Ra238 ns238 0 19.9117226261 noise=0
Ra239 ns239 0 19.9117226261 noise=0
Ga238 ns238 0 ns239 0 -0.346186931449
Ga239 ns239 0 ns238 0 0.346186931449
Ca240 ns240 0 1e-12
Ca241 ns241 0 1e-12
Ra240 ns240 0 22.383359742 noise=0
Ra241 ns241 0 22.383359742 noise=0
Ga240 ns240 0 ns241 0 -0.317452973336
Ga241 ns241 0 ns240 0 0.317452973336
Ca242 ns242 0 1e-12
Ca243 ns243 0 1e-12
Ra242 ns242 0 38.0479358576 noise=0
Ra243 ns243 0 38.0479358576 noise=0
Ga242 ns242 0 ns243 0 -0.29186865188
Ga243 ns243 0 ns242 0 0.29186865188
Ca244 ns244 0 1e-12
Ca245 ns245 0 1e-12
Ra244 ns244 0 12.4189583497 noise=0
Ra245 ns245 0 12.4189583497 noise=0
Ga244 ns244 0 ns245 0 -0.258059325384
Ga245 ns245 0 ns244 0 0.258059325384
Ca246 ns246 0 1e-12
Ca247 ns247 0 1e-12
Ra246 ns246 0 23.0324462867 noise=0
Ra247 ns247 0 23.0324462867 noise=0
Ga246 ns246 0 ns247 0 -0.212645067874
Ga247 ns247 0 ns246 0 0.212645067874
Ca248 ns248 0 1e-12
Ca249 ns249 0 1e-12
Ra248 ns248 0 34.7188374441 noise=0
Ra249 ns249 0 34.7188374441 noise=0
Ga248 ns248 0 ns249 0 -0.19740480044
Ga249 ns249 0 ns248 0 0.19740480044
Ca250 ns250 0 1e-12
Ca251 ns251 0 1e-12
Ra250 ns250 0 13.2633244371 noise=0
Ra251 ns251 0 13.2633244371 noise=0
Ga250 ns250 0 ns251 0 -0.121026208723
Ga251 ns251 0 ns250 0 0.121026208723
Ca252 ns252 0 1e-12
Ca253 ns253 0 1e-12
Ra252 ns252 0 18.9661932554 noise=0
Ra253 ns253 0 18.9661932554 noise=0
Ga252 ns252 0 ns253 0 -0.10544020576
Ga253 ns253 0 ns252 0 0.10544020576
Ca254 ns254 0 1e-12
Ca255 ns255 0 1e-12
Ra254 ns254 0 32.7496561073 noise=0
Ra255 ns255 0 32.7496561073 noise=0
Ga254 ns254 0 ns255 0 -0.100351912105
Ga255 ns255 0 ns254 0 0.100351912105
Ca256 ns256 0 1e-12
Ra256 ns256 0 24.8522946037 noise=0
Ca257 ns257 0 1e-12
Ca258 ns258 0 1e-12
Ra257 ns257 0 27.1312266605 noise=0
Ra258 ns258 0 27.1312266605 noise=0
Ga257 ns257 0 ns258 0 -0.0077220911993
Ga258 ns258 0 ns257 0 0.0077220911993
Ca259 ns259 0 1e-12
Ra259 ns259 0 1255.41863382 noise=0
Ca260 ns260 0 1e-12
Ra260 ns260 0 1.00629317801 noise=0
Ca261 ns261 0 1e-12
Ca262 ns262 0 1e-12
Ra261 ns261 0 3.23514518726 noise=0
Ra262 ns262 0 3.23514518726 noise=0
Ga261 ns261 0 ns262 0 -0.496444529287
Ga262 ns262 0 ns261 0 0.496444529287
Ca263 ns263 0 1e-12
Ca264 ns264 0 1e-12
Ra263 ns263 0 99.2967616202 noise=0
Ra264 ns264 0 99.2967616202 noise=0
Ga263 ns263 0 ns264 0 -0.503988242707
Ga264 ns264 0 ns263 0 0.503988242707
Ca265 ns265 0 1e-12
Ca266 ns266 0 1e-12
Ra265 ns265 0 46.6813218836 noise=0
Ra266 ns266 0 46.6813218836 noise=0
Ga265 ns265 0 ns266 0 -0.489302368603
Ga266 ns266 0 ns265 0 0.489302368603
Ca267 ns267 0 1e-12
Ca268 ns268 0 1e-12
Ra267 ns267 0 34.9646419918 noise=0
Ra268 ns268 0 34.9646419918 noise=0
Ga267 ns267 0 ns268 0 -0.465240916059
Ga268 ns268 0 ns267 0 0.465240916059
Ca269 ns269 0 1e-12
Ca270 ns270 0 1e-12
Ra269 ns269 0 30.2486203037 noise=0
Ra270 ns270 0 30.2486203037 noise=0
Ga269 ns269 0 ns270 0 -0.433297630249
Ga270 ns270 0 ns269 0 0.433297630249
Ca271 ns271 0 1e-12
Ca272 ns272 0 1e-12
Ra271 ns271 0 20.2165502189 noise=0
Ra272 ns272 0 20.2165502189 noise=0
Ga271 ns271 0 ns272 0 -0.415689448636
Ga272 ns272 0 ns271 0 0.415689448636
Ca273 ns273 0 1e-12
Ca274 ns274 0 1e-12
Ra273 ns273 0 40.8940460192 noise=0
Ra274 ns274 0 40.8940460192 noise=0
Ga273 ns273 0 ns274 0 -0.385147744818
Ga274 ns274 0 ns273 0 0.385147744818
Ca275 ns275 0 1e-12
Ca276 ns276 0 1e-12
Ra275 ns275 0 19.9117226261 noise=0
Ra276 ns276 0 19.9117226261 noise=0
Ga275 ns275 0 ns276 0 -0.346186931449
Ga276 ns276 0 ns275 0 0.346186931449
Ca277 ns277 0 1e-12
Ca278 ns278 0 1e-12
Ra277 ns277 0 22.383359742 noise=0
Ra278 ns278 0 22.383359742 noise=0
Ga277 ns277 0 ns278 0 -0.317452973336
Ga278 ns278 0 ns277 0 0.317452973336
Ca279 ns279 0 1e-12
Ca280 ns280 0 1e-12
Ra279 ns279 0 38.0479358576 noise=0
Ra280 ns280 0 38.0479358576 noise=0
Ga279 ns279 0 ns280 0 -0.29186865188
Ga280 ns280 0 ns279 0 0.29186865188
Ca281 ns281 0 1e-12
Ca282 ns282 0 1e-12
Ra281 ns281 0 12.4189583497 noise=0
Ra282 ns282 0 12.4189583497 noise=0
Ga281 ns281 0 ns282 0 -0.258059325384
Ga282 ns282 0 ns281 0 0.258059325384
Ca283 ns283 0 1e-12
Ca284 ns284 0 1e-12
Ra283 ns283 0 23.0324462867 noise=0
Ra284 ns284 0 23.0324462867 noise=0
Ga283 ns283 0 ns284 0 -0.212645067874
Ga284 ns284 0 ns283 0 0.212645067874
Ca285 ns285 0 1e-12
Ca286 ns286 0 1e-12
Ra285 ns285 0 34.7188374441 noise=0
Ra286 ns286 0 34.7188374441 noise=0
Ga285 ns285 0 ns286 0 -0.19740480044
Ga286 ns286 0 ns285 0 0.19740480044
Ca287 ns287 0 1e-12
Ca288 ns288 0 1e-12
Ra287 ns287 0 13.2633244371 noise=0
Ra288 ns288 0 13.2633244371 noise=0
Ga287 ns287 0 ns288 0 -0.121026208723
Ga288 ns288 0 ns287 0 0.121026208723
Ca289 ns289 0 1e-12
Ca290 ns290 0 1e-12
Ra289 ns289 0 18.9661932554 noise=0
Ra290 ns290 0 18.9661932554 noise=0
Ga289 ns289 0 ns290 0 -0.10544020576
Ga290 ns290 0 ns289 0 0.10544020576
Ca291 ns291 0 1e-12
Ca292 ns292 0 1e-12
Ra291 ns291 0 32.7496561073 noise=0
Ra292 ns292 0 32.7496561073 noise=0
Ga291 ns291 0 ns292 0 -0.100351912105
Ga292 ns292 0 ns291 0 0.100351912105
Ca293 ns293 0 1e-12
Ra293 ns293 0 24.8522946037 noise=0
Ca294 ns294 0 1e-12
Ca295 ns295 0 1e-12
Ra294 ns294 0 27.1312266605 noise=0
Ra295 ns295 0 27.1312266605 noise=0
Ga294 ns294 0 ns295 0 -0.0077220911993
Ga295 ns295 0 ns294 0 0.0077220911993
Ca296 ns296 0 1e-12
Ra296 ns296 0 1255.41863382 noise=0

Gb1_1 ns1 0 ni1 0 -0.993746178399
Gb2_1 ns2 0 ni1 0 0.206357749572
Gb3_1 ns3 0 ni1 0 0.560418939038
Gb4_1 ns4 0 ni1 0 -0.0439373586586
Gb5_1 ns5 0 ni1 0 -0.503311512913
Gb6_1 ns6 0 ni1 0 0.484702471978
Gb7_1 ns7 0 ni1 0 0.126489377174
Gb8_1 ns8 0 ni1 0 -0.154502502487
Gb9_1 ns9 0 ni1 0 0.45750117795
Gb10_1 ns10 0 ni1 0 0.239858010195
Gb11_1 ns11 0 ni1 0 0.417519489808
Gb12_1 ns12 0 ni1 0 0.364442397777
Gb13_1 ns13 0 ni1 0 -0.378209055662
Gb14_1 ns14 0 ni1 0 -0.290550143198
Gb15_1 ns15 0 ni1 0 0.36825298363
Gb16_1 ns16 0 ni1 0 0.138172492565
Gb17_1 ns17 0 ni1 0 0.333427821107
Gb18_1 ns18 0 ni1 0 -0.284467134658
Gb19_1 ns19 0 ni1 0 0.279062335386
Gb20_1 ns20 0 ni1 0 -0.0902629370133
Gb21_1 ns21 0 ni1 0 0.286107255774
Gb22_1 ns22 0 ni1 0 0.28041018527
Gb23_1 ns23 0 ni1 0 0.00889138929927
Gb24_1 ns24 0 ni1 0 0.186356489801
Gb25_1 ns25 0 ni1 0 -0.172171530087
Gb26_1 ns26 0 ni1 0 -0.0714391928051
Gb27_1 ns27 0 ni1 0 0.191183839252
Gb28_1 ns28 0 ni1 0 0.106816939055
Gb29_1 ns29 0 ni1 0 0.09820473861
Gb30_1 ns30 0 ni1 0 -0.114955578665
Gb31_1 ns31 0 ni1 0 0.0336965571042
Gb32_1 ns32 0 ni1 0 -0.0933250056251
Gb33_1 ns33 0 ni1 0 0.0536285339485
Gb34_1 ns34 0 ni1 0 -0.0402377332133
Gb35_1 ns35 0 ni1 0 0.00827411543063
Gb36_1 ns36 0 ni1 0 -0.0367422440678
Gb37_1 ns37 0 ni1 0 0.000796547042602
Gb38_2 ns38 0 ni2 0 -0.993746178399
Gb39_2 ns39 0 ni2 0 0.206357749572
Gb40_2 ns40 0 ni2 0 0.560418939038
Gb41_2 ns41 0 ni2 0 -0.0439373586586
Gb42_2 ns42 0 ni2 0 -0.503311512913
Gb43_2 ns43 0 ni2 0 0.484702471978
Gb44_2 ns44 0 ni2 0 0.126489377174
Gb45_2 ns45 0 ni2 0 -0.154502502487
Gb46_2 ns46 0 ni2 0 0.45750117795
Gb47_2 ns47 0 ni2 0 0.239858010195
Gb48_2 ns48 0 ni2 0 0.417519489808
Gb49_2 ns49 0 ni2 0 0.364442397777
Gb50_2 ns50 0 ni2 0 -0.378209055662
Gb51_2 ns51 0 ni2 0 -0.290550143198
Gb52_2 ns52 0 ni2 0 0.36825298363
Gb53_2 ns53 0 ni2 0 0.138172492565
Gb54_2 ns54 0 ni2 0 0.333427821107
Gb55_2 ns55 0 ni2 0 -0.284467134658
Gb56_2 ns56 0 ni2 0 0.279062335386
Gb57_2 ns57 0 ni2 0 -0.0902629370133
Gb58_2 ns58 0 ni2 0 0.286107255774
Gb59_2 ns59 0 ni2 0 0.28041018527
Gb60_2 ns60 0 ni2 0 0.00889138929927
Gb61_2 ns61 0 ni2 0 0.186356489801
Gb62_2 ns62 0 ni2 0 -0.172171530087
Gb63_2 ns63 0 ni2 0 -0.0714391928051
Gb64_2 ns64 0 ni2 0 0.191183839252