* BEGIN ANSOFT HEADER
* node 1    trace_p_0_T1
* node 2    trace_n_0_T1
* node 3    trace_p_1_T1
* node 4    trace_n_1_T1
* node 5    trace_p_0_T2
* node 6    trace_n_0_T2
* node 7    trace_p_1_T2
* node 8    trace_n_1_T2
*   Format: HSPICE
*   Topckt: m4linesveryHighFreq_HFSS_100mil_fws
*     Date: Sat Jun 06 18:38:45 2020
*    Notes: Frequency range: 1e+08 to 2.996e+11 Hz, 600 points
*         : Maximum number of poles: 10000
*         : S-Matrix fitting error tolerance: 0.001
*         : Causality check tolerance: auto
*         : Passivity enforcement: on (by iterated fitting)
*         : Causality enforcement: off
*         : Fitting method: FastFit
*         : Matrix fitting: By entire matrix (required by FastFit)
*         : Ensure Z-parameter accuracy: on
*         : Relative error control: off
*         : Common ground option: on
*         : Final fitting error: 0.259208
*         : Final model order: 448
* END ANSOFT HEADER

.subckt m4linesveryHighFreq_HFSS_100mil_fws 1 2 3 4 5 6 7 8
Vam1 1 n2 dc 0
Rport1 n2 0 50 noise=0
Vam2 2 n4 dc 0
Rport2 n4 0 50 noise=0
Vam3 3 n6 dc 0
Rport3 n6 0 50 noise=0
Vam4 4 n8 dc 0
Rport4 n8 0 50 noise=0
Vam5 5 n10 dc 0
Rport5 n10 0 50 noise=0
Vam6 6 n12 dc 0
Rport6 n12 0 50 noise=0
Vam7 7 n14 dc 0
Rport7 n14 0 50 noise=0
Vam8 8 n16 dc 0
Rport8 n16 0 50 noise=0

Fi1 0 ni1 Vam1 50
Gi1 0 ni1 1 0 1
Rt1 ni1 0 1 noise=0
Fi2 0 ni2 Vam2 50
Gi2 0 ni2 2 0 1
Rt2 ni2 0 1 noise=0
Fi3 0 ni3 Vam3 50
Gi3 0 ni3 3 0 1
Rt3 ni3 0 1 noise=0
Fi4 0 ni4 Vam4 50
Gi4 0 ni4 4 0 1
Rt4 ni4 0 1 noise=0
Fi5 0 ni5 Vam5 50
Gi5 0 ni5 5 0 1
Rt5 ni5 0 1 noise=0
Fi6 0 ni6 Vam6 50
Gi6 0 ni6 6 0 1
Rt6 ni6 0 1 noise=0
Fi7 0 ni7 Vam7 50
Gi7 0 ni7 7 0 1
Rt7 ni7 0 1 noise=0
Fi8 0 ni8 Vam8 50
Gi8 0 ni8 8 0 1
Rt8 ni8 0 1 noise=0

Ca1 ns1 0 1e-12
Ca2 ns2 0 1e-12
Ra1 ns1 0 0.177524466588 noise=0
Ra2 ns2 0 0.177524466588 noise=0
Ga1 ns1 0 ns2 0 -0.592192182122
Ga2 ns2 0 ns1 0 0.592192182122
Ca3 ns3 0 1e-12
Ca4 ns4 0 1e-12
Ra3 ns3 0 3.73043526058 noise=0
Ra4 ns4 0 3.73043526058 noise=0
Ga3 ns3 0 ns4 0 -1.88816876812
Ga4 ns4 0 ns3 0 1.88816876812
Ca5 ns5 0 1e-12
Ca6 ns6 0 1e-12
Ra5 ns5 0 78.3630472463 noise=0
Ra6 ns6 0 78.3630472463 noise=0
Ga5 ns5 0 ns6 0 -1.87552614083
Ga6 ns6 0 ns5 0 1.87552614083
Ca7 ns7 0 1e-12
Ca8 ns8 0 1e-12
Ra7 ns7 0 28.6294222129 noise=0
Ra8 ns8 0 28.6294222129 noise=0
Ga7 ns7 0 ns8 0 -1.8615708713
Ga8 ns8 0 ns7 0 1.8615708713
Ca9 ns9 0 1e-12
Ca10 ns10 0 1e-12
Ra9 ns9 0 934.131832031 noise=0
Ra10 ns10 0 934.131832031 noise=0
Ga9 ns9 0 ns10 0 -1.77206208419
Ga10 ns10 0 ns9 0 1.77206208419
Ca11 ns11 0 1e-12
Ca12 ns12 0 1e-12
Ra11 ns11 0 30.3138883767 noise=0
Ra12 ns12 0 30.3138883767 noise=0
Ga11 ns11 0 ns12 0 -1.74835043081
Ga12 ns12 0 ns11 0 1.74835043081
Ca13 ns13 0 1e-12
Ca14 ns14 0 1e-12
Ra13 ns13 0 29.0014618309 noise=0
Ra14 ns14 0 29.0014618309 noise=0
Ga13 ns13 0 ns14 0 -1.68453524434
Ga14 ns14 0 ns13 0 1.68453524434
Ca15 ns15 0 1e-12
Ca16 ns16 0 1e-12
Ra15 ns15 0 608.740499085 noise=0
Ra16 ns16 0 608.740499085 noise=0
Ga15 ns15 0 ns16 0 -1.60136974681
Ga16 ns16 0 ns15 0 1.60136974681
Ca17 ns17 0 1e-12
Ca18 ns18 0 1e-12
Ra17 ns17 0 28.8457454632 noise=0
Ra18 ns18 0 28.8457454632 noise=0
Ga17 ns17 0 ns18 0 -1.57343392648
Ga18 ns18 0 ns17 0 1.57343392648
Ca19 ns19 0 1e-12
Ca20 ns20 0 1e-12
Ra19 ns19 0 27.1849571621 noise=0
Ra20 ns20 0 27.1849571621 noise=0
Ga19 ns19 0 ns20 0 -1.49976985502
Ga20 ns20 0 ns19 0 1.49976985502
Ca21 ns21 0 1e-12
Ca22 ns22 0 1e-12
Ra21 ns21 0 294.868225966 noise=0
Ra22 ns22 0 294.868225966 noise=0
Ga21 ns21 0 ns22 0 -1.43272297288
Ga22 ns22 0 ns21 0 1.43272297288
Ca23 ns23 0 1e-12
Ca24 ns24 0 1e-12
Ra23 ns23 0 24.065722504 noise=0
Ra24 ns24 0 24.065722504 noise=0
Ga23 ns23 0 ns24 0 -1.39531521009
Ga24 ns24 0 ns23 0 1.39531521009
Ca25 ns25 0 1e-12
Ca26 ns26 0 1e-12
Ra25 ns25 0 27.949811121 noise=0
Ra26 ns26 0 27.949811121 noise=0
Ga25 ns25 0 ns26 0 -1.32076031205
Ga26 ns26 0 ns25 0 1.32076031205
Ca27 ns27 0 1e-12
Ca28 ns28 0 1e-12
Ra27 ns27 0 68.9019895791 noise=0
Ra28 ns28 0 68.9019895791 noise=0
Ga27 ns27 0 ns28 0 -1.26735586041
Ga28 ns28 0 ns27 0 1.26735586041
Ca29 ns29 0 1e-12
Ca30 ns30 0 1e-12
Ra29 ns29 0 17.4920890166 noise=0
Ra30 ns30 0 17.4920890166 noise=0
Ga29 ns29 0 ns30 0 -1.21455822137
Ga30 ns30 0 ns29 0 1.21455822137
Ca31 ns31 0 1e-12
Ca32 ns32 0 1e-12
Ra31 ns31 0 23.7303485873 noise=0
Ra32 ns32 0 23.7303485873 noise=0
Ga31 ns31 0 ns32 0 -1.13110590561
Ga32 ns32 0 ns31 0 1.13110590561
Ca33 ns33 0 1e-12
Ca34 ns34 0 1e-12
Ra33 ns33 0 12.6702453574 noise=0
Ra34 ns34 0 12.6702453574 noise=0
Ga33 ns33 0 ns34 0 -1.01544529945
Ga34 ns34 0 ns33 0 1.01544529945
Ca35 ns35 0 1e-12
Ca36 ns36 0 1e-12
Ra35 ns35 0 22.4497679254 noise=0
Ra36 ns36 0 22.4497679254 noise=0
Ga35 ns35 0 ns36 0 -0.947337481808
Ga36 ns36 0 ns35 0 0.947337481808
Ca37 ns37 0 1e-12
Ca38 ns38 0 1e-12
Ra37 ns37 0 19.3969089633 noise=0
Ra38 ns38 0 19.3969089633 noise=0
Ga37 ns37 0 ns38 0 -0.828769989963
Ga38 ns38 0 ns37 0 0.828769989963
Ca39 ns39 0 1e-12
Ca40 ns40 0 1e-12
Ra39 ns39 0 28.1931334636 noise=0
Ra40 ns40 0 28.1931334636 noise=0
Ga39 ns39 0 ns40 0 -0.753040704424
Ga40 ns40 0 ns39 0 0.753040704424
Ca41 ns41 0 1e-12
Ca42 ns42 0 1e-12
Ra41 ns41 0 9.58447239365 noise=0
Ra42 ns42 0 9.58447239365 noise=0
Ga41 ns41 0 ns42 0 -0.706025240203
Ga42 ns42 0 ns41 0 0.706025240203
Ca43 ns43 0 1e-12
Ca44 ns44 0 1e-12
Ra43 ns43 0 19.2217606518 noise=0
Ra44 ns44 0 19.2217606518 noise=0
Ga43 ns43 0 ns44 0 -0.584920288579
Ga44 ns44 0 ns43 0 0.584920288579
Ca45 ns45 0 1e-12
Ca46 ns46 0 1e-12
Ra45 ns45 0 12.9186134131 noise=0
Ra46 ns46 0 12.9186134131 noise=0
Ga45 ns45 0 ns46 0 -0.451995255731
Ga46 ns46 0 ns45 0 0.451995255731
Ca47 ns47 0 1e-12
Ca48 ns48 0 1e-12
Ra47 ns47 0 14.6643586754 noise=0
Ra48 ns48 0 14.6643586754 noise=0
Ga47 ns47 0 ns48 0 -0.39239765994
Ga48 ns48 0 ns47 0 0.39239765994
Ca49 ns49 0 1e-12
Ca50 ns50 0 1e-12
Ra49 ns49 0 18.5528384969 noise=0
Ra50 ns50 0 18.5528384969 noise=0
Ga49 ns49 0 ns50 0 -0.213309922964
Ga50 ns50 0 ns49 0 0.213309922964
Ca51 ns51 0 1e-12
Ca52 ns52 0 1e-12
Ra51 ns51 0 16.425306589 noise=0
Ra52 ns52 0 16.425306589 noise=0
Ga51 ns51 0 ns52 0 -0.132506240506
Ga52 ns52 0 ns51 0 0.132506240506
Ca53 ns53 0 1e-12
Ra53 ns53 0 12.9927381247 noise=0
Ca54 ns54 0 1e-12
Ra54 ns54 0 99.3047026559 noise=0
Ca55 ns55 0 1e-12
Ca56 ns56 0 1e-12
Ra55 ns55 0 116.054358759 noise=0
Ra56 ns56 0 116.054358759 noise=0
Ga55 ns55 0 ns56 0 -0.0790828435996
Ga56 ns56 0 ns55 0 0.0790828435996
Ca57 ns57 0 1e-12
Ca58 ns58 0 1e-12
Ra57 ns57 0 0.177524466588 noise=0
Ra58 ns58 0 0.177524466588 noise=0
Ga57 ns57 0 ns58 0 -0.592192182122
Ga58 ns58 0 ns57 0 0.592192182122
Ca59 ns59 0 1e-12
Ca60 ns60 0 1e-12
Ra59 ns59 0 3.73043526058 noise=0
Ra60 ns60 0 3.73043526058 noise=0
Ga59 ns59 0 ns60 0 -1.88816876812
Ga60 ns60 0 ns59 0 1.88816876812
Ca61 ns61 0 1e-12
Ca62 ns62 0 1e-12
Ra61 ns61 0 78.3630472463 noise=0
Ra62 ns62 0 78.3630472463 noise=0
Ga61 ns61 0 ns62 0 -1.87552614083
Ga62 ns62 0 ns61 0 1.87552614083
Ca63 ns63 0 1e-12
Ca64 ns64 0 1e-12
Ra63 ns63 0 28.6294222129 noise=0
Ra64 ns64 0 28.6294222129 noise=0
Ga63 ns63 0 ns64 0 -1.8615708713
Ga64 ns64 0 ns63 0 1.8615708713
Ca65 ns65 0 1e-12
Ca66 ns66 0 1e-12
Ra65 ns65 0 934.131832031 noise=0
Ra66 ns66 0 934.131832031 noise=0
Ga65 ns65 0 ns66 0 -1.77206208419
Ga66 ns66 0 ns65 0 1.77206208419
Ca67 ns67 0 1e-12
Ca68 ns68 0 1e-12
Ra67 ns67 0 30.3138883767 noise=0
Ra68 ns68 0 30.3138883767 noise=0
Ga67 ns67 0 ns68 0 -1.74835043081
Ga68 ns68 0 ns67 0 1.74835043081
Ca69 ns69 0 1e-12
Ca70 ns70 0 1e-12
Ra69 ns69 0 29.0014618309 noise=0
Ra70 ns70 0 29.0014618309 noise=0
Ga69 ns69 0 ns70 0 -1.68453524434
Ga70 ns70 0 ns69 0 1.68453524434
Ca71 ns71 0 1e-12
Ca72 ns72 0 1e-12
Ra71 ns71 0 608.740499085 noise=0
Ra72 ns72 0 608.740499085 noise=0
Ga71 ns71 0 ns72 0 -1.60136974681
Ga72 ns72 0 ns71 0 1.60136974681
Ca73 ns73 0 1e-12
Ca74 ns74 0 1e-12
Ra73 ns73 0 28.8457454632 noise=0
Ra74 ns74 0 28.8457454632 noise=0
Ga73 ns73 0 ns74 0 -1.57343392648
Ga74 ns74 0 ns73 0 1.57343392648
Ca75 ns75 0 1e-12
Ca76 ns76 0 1e-12
Ra75 ns75 0 27.1849571621 noise=0
Ra76 ns76 0 27.1849571621 noise=0
Ga75 ns75 0 ns76 0 -1.49976985502
Ga76 ns76 0 ns75 0 1.49976985502
Ca77 ns77 0 1e-12
Ca78 ns78 0 1e-12
Ra77 ns77 0 294.868225966 noise=0
Ra78 ns78 0 294.868225966 noise=0
Ga77 ns77 0 ns78 0 -1.43272297288
Ga78 ns78 0 ns77 0 1.43272297288
Ca79 ns79 0 1e-12
Ca80 ns80 0 1e-12
Ra79 ns79 0 24.065722504 noise=0
Ra80 ns80 0 24.065722504 noise=0
Ga79 ns79 0 ns80 0 -1.39531521009
Ga80 ns80 0 ns79 0 1.39531521009
Ca81 ns81 0 1e-12
Ca82 ns82 0 1e-12
Ra81 ns81 0 27.949811121 noise=0
Ra82 ns82 0 27.949811121 noise=0
Ga81 ns81 0 ns82 0 -1.32076031205
Ga82 ns82 0 ns81 0 1.32076031205
Ca83 ns83 0 1e-12
Ca84 ns84 0 1e-12
Ra83 ns83 0 68.9019895791 noise=0
Ra84 ns84 0 68.9019895791 noise=0
Ga83 ns83 0 ns84 0 -1.26735586041
Ga84 ns84 0 ns83 0 1.26735586041
Ca85 ns85 0 1e-12
Ca86 ns86 0 1e-12
Ra85 ns85 0 17.4920890166 noise=0
Ra86 ns86 0 17.4920890166 noise=0
Ga85 ns85 0 ns86 0 -1.21455822137
Ga86 ns86 0 ns85 0 1.21455822137
Ca87 ns87 0 1e-12
Ca88 ns88 0 1e-12
Ra87 ns87 0 23.7303485873 noise=0
Ra88 ns88 0 23.7303485873 noise=0
Ga87 ns87 0 ns88 0 -1.13110590561
Ga88 ns88 0 ns87 0 1.13110590561
Ca89 ns89 0 1e-12
Ca90 ns90 0 1e-12
Ra89 ns89 0 12.6702453574 noise=0
Ra90 ns90 0 12.6702453574 noise=0
Ga89 ns89 0 ns90 0 -1.01544529945
Ga90 ns90 0 ns89 0 1.01544529945
Ca91 ns91 0 1e-12
Ca92 ns92 0 1e-12
Ra91 ns91 0 22.4497679254 noise=0
Ra92 ns92 0 22.4497679254 noise=0
Ga91 ns91 0 ns92 0 -0.947337481808
Ga92 ns92 0 ns91 0 0.947337481808
Ca93 ns93 0 1e-12
Ca94 ns94 0 1e-12
Ra93 ns93 0 19.3969089633 noise=0
Ra94 ns94 0 19.3969089633 noise=0
Ga93 ns93 0 ns94 0 -0.828769989963
Ga94 ns94 0 ns93 0 0.828769989963
Ca95 ns95 0 1e-12
Ca96 ns96 0 1e-12
Ra95 ns95 0 28.1931334636 noise=0
Ra96 ns96 0 28.1931334636 noise=0
Ga95 ns95 0 ns96 0 -0.753040704424
Ga96 ns96 0 ns95 0 0.753040704424
Ca97 ns97 0 1e-12
Ca98 ns98 0 1e-12
Ra97 ns97 0 9.58447239365 noise=0
Ra98 ns98 0 9.58447239365 noise=0
Ga97 ns97 0 ns98 0 -0.706025240203
Ga98 ns98 0 ns97 0 0.706025240203
Ca99 ns99 0 1e-12
Ca100 ns100 0 1e-12
Ra99 ns99 0 19.2217606518 noise=0
Ra100 ns100 0 19.2217606518 noise=0
Ga99 ns99 0 ns100 0 -0.584920288579
Ga100 ns100 0 ns99 0 0.584920288579
Ca101 ns101 0 1e-12
Ca102 ns102 0 1e-12
Ra101 ns101 0 12.9186134131 noise=0
Ra102 ns102 0 12.9186134131 noise=0
Ga101 ns101 0 ns102 0 -0.451995255731
Ga102 ns102 0 ns101 0 0.451995255731
Ca103 ns103 0 1e-12
Ca104 ns104 0 1e-12
Ra103 ns103 0 14.6643586754 noise=0
Ra104 ns104 0 14.6643586754 noise=0
Ga103 ns103 0 ns104 0 -0.39239765994
Ga104 ns104 0 ns103 0 0.39239765994
Ca105 ns105 0 1e-12
Ca106 ns106 0 1e-12
Ra105 ns105 0 18.5528384969 noise=0
Ra106 ns106 0 18.5528384969 noise=0
Ga105 ns105 0 ns106 0 -0.213309922964
Ga106 ns106 0 ns105 0 0.213309922964
Ca107 ns107 0 1e-12
Ca108 ns108 0 1e-12
Ra107 ns107 0 16.425306589 noise=0
Ra108 ns108 0 16.425306589 noise=0
Ga107 ns107 0 ns108 0 -0.132506240506
Ga108 ns108 0 ns107 0 0.132506240506
Ca109 ns109 0 1e-12
Ra109 ns109 0 12.9927381247 noise=0
Ca110 ns110 0 1e-12
Ra110 ns110 0 99.3047026559 noise=0
Ca111 ns111 0 1e-12
Ca112 ns112 0 1e-12
Ra111 ns111 0 116.054358759 noise=0
Ra112 ns112 0 116.054358759 noise=0
Ga111 ns111 0 ns112 0 -0.0790828435996
Ga112 ns112 0 ns111 0 0.0790828435996
Ca113 ns113 0 1e-12
Ca114 ns114 0 1e-12
Ra113 ns113 0 0.177524466588 noise=0
Ra114 ns114 0 0.177524466588 noise=0
Ga113 ns113 0 ns114 0 -0.592192182122
Ga114 ns114 0 ns113 0 0.592192182122
Ca115 ns115 0 1e-12
Ca116 ns116 0 1e-12
Ra115 ns115 0 3.73043526058 noise=0
Ra116 ns116 0 3.73043526058 noise=0
Ga115 ns115 0 ns116 0 -1.88816876812
Ga116 ns116 0 ns115 0 1.88816876812
Ca117 ns117 0 1e-12
Ca118 ns118 0 1e-12
Ra117 ns117 0 78.3630472463 noise=0
Ra118 ns118 0 78.3630472463 noise=0
Ga117 ns117 0 ns118 0 -1.87552614083
Ga118 ns118 0 ns117 0 1.87552614083
Ca119 ns119 0 1e-12
Ca120 ns120 0 1e-12
Ra119 ns119 0 28.6294222129 noise=0
Ra120 ns120 0 28.6294222129 noise=0
Ga119 ns119 0 ns120 0 -1.8615708713
Ga120 ns120 0 ns119 0 1.8615708713
Ca121 ns121 0 1e-12
Ca122 ns122 0 1e-12
Ra121 ns121 0 934.131832031 noise=0
Ra122 ns122 0 934.131832031 noise=0
Ga121 ns121 0 ns122 0 -1.77206208419
Ga122 ns122 0 ns121 0 1.77206208419
Ca123 ns123 0 1e-12
Ca124 ns124 0 1e-12
Ra123 ns123 0 30.3138883767 noise=0
Ra124 ns124 0 30.3138883767 noise=0
Ga123 ns123 0 ns124 0 -1.74835043081
Ga124 ns124 0 ns123 0 1.74835043081
Ca125 ns125 0 1e-12
Ca126 ns126 0 1e-12
Ra125 ns125 0 29.0014618309 noise=0
Ra126 ns126 0 29.0014618309 noise=0
Ga125 ns125 0 ns126 0 -1.68453524434
Ga126 ns126 0 ns125 0 1.68453524434
Ca127 ns127 0 1e-12
Ca128 ns128 0 1e-12
Ra127 ns127 0 608.740499085 noise=0
Ra128 ns128 0 608.740499085 noise=0
Ga127 ns127 0 ns128 0 -1.60136974681
Ga128 ns128 0 ns127 0 1.60136974681
Ca129 ns129 0 1e-12
Ca130 ns130 0 1e-12
Ra129 ns129 0 28.8457454632 noise=0
Ra130 ns130 0 28.8457454632 noise=0
Ga129 ns129 0 ns130 0 -1.57343392648
Ga130 ns130 0 ns129 0 1.57343392648
Ca131 ns131 0 1e-12
Ca132 ns132 0 1e-12
Ra131 ns131 0 27.1849571621 noise=0
Ra132 ns132 0 27.1849571621 noise=0
Ga131 ns131 0 ns132 0 -1.49976985502
Ga132 ns132 0 ns131 0 1.49976985502
Ca133 ns133 0 1e-12
Ca134 ns134 0 1e-12
Ra133 ns133 0 294.868225966 noise=0
Ra134 ns134 0 294.868225966 noise=0
Ga133 ns133 0 ns134 0 -1.43272297288
Ga134 ns134 0 ns133 0 1.43272297288
Ca135 ns135 0 1e-12
Ca136 ns136 0 1e-12
Ra135 ns135 0 24.065722504 noise=0
Ra136 ns136 0 24.065722504 noise=0
Ga135 ns135 0 ns136 0 -1.39531521009
Ga136 ns136 0 ns135 0 1.39531521009
Ca137 ns137 0 1e-12
Ca138 ns138 0 1e-12
Ra137 ns137 0 27.949811121 noise=0
Ra138 ns138 0 27.949811121 noise=0
Ga137 ns137 0 ns138 0 -1.32076031205
Ga138 ns138 0 ns137 0 1.32076031205
Ca139 ns139 0 1e-12
Ca140 ns140 0 1e-12
Ra139 ns139 0 68.9019895791 noise=0
Ra140 ns140 0 68.9019895791 noise=0
Ga139 ns139 0 ns140 0 -1.26735586041
Ga140 ns140 0 ns139 0 1.26735586041
Ca141 ns141 0 1e-12
Ca142 ns142 0 1e-12
Ra141 ns141 0 17.4920890166 noise=0
Ra142 ns142 0 17.4920890166 noise=0
Ga141 ns141 0 ns142 0 -1.21455822137
Ga142 ns142 0 ns141 0 1.21455822137
Ca143 ns143 0 1e-12
Ca144 ns144 0 1e-12
Ra143 ns143 0 23.7303485873 noise=0
Ra144 ns144 0 23.7303485873 noise=0
Ga143 ns143 0 ns144 0 -1.13110590561
Ga144 ns144 0 ns143 0 1.13110590561
Ca145 ns145 0 1e-12
Ca146 ns146 0 1e-12
Ra145 ns145 0 12.6702453574 noise=0
Ra146 ns146 0 12.6702453574 noise=0
Ga145 ns145 0 ns146 0 -1.01544529945
Ga146 ns146 0 ns145 0 1.01544529945
Ca147 ns147 0 1e-12
Ca148 ns148 0 1e-12
Ra147 ns147 0 22.4497679254 noise=0
Ra148 ns148 0 22.4497679254 noise=0
Ga147 ns147 0 ns148 0 -0.947337481808
Ga148 ns148 0 ns147 0 0.947337481808
Ca149 ns149 0 1e-12
Ca150 ns150 0 1e-12
Ra149 ns149 0 19.3969089633 noise=0
Ra150 ns150 0 19.3969089633 noise=0
Ga149 ns149 0 ns150 0 -0.828769989963
Ga150 ns150 0 ns149 0 0.828769989963
Ca151 ns151 0 1e-12
Ca152 ns152 0 1e-12
Ra151 ns151 0 28.1931334636 noise=0
Ra152 ns152 0 28.1931334636 noise=0
Ga151 ns151 0 ns152 0 -0.753040704424
Ga152 ns152 0 ns151 0 0.753040704424
Ca153 ns153 0 1e-12
Ca154 ns154 0 1e-12
Ra153 ns153 0 9.58447239365 noise=0
Ra154 ns154 0 9.58447239365 noise=0
Ga153 ns153 0 ns154 0 -0.706025240203
Ga154 ns154 0 ns153 0 0.706025240203
Ca155 ns155 0 1e-12
Ca156 ns156 0 1e-12
Ra155 ns155 0 19.2217606518 noise=0
Ra156 ns156 0 19.2217606518 noise=0
Ga155 ns155 0 ns156 0 -0.584920288579
Ga156 ns156 0 ns155 0 0.584920288579
Ca157 ns157 0 1e-12
Ca158 ns158 0 1e-12
Ra157 ns157 0 12.9186134131 noise=0
Ra158 ns158 0 12.9186134131 noise=0
Ga157 ns157 0 ns158 0 -0.451995255731
Ga158 ns158 0 ns157 0 0.451995255731
Ca159 ns159 0 1e-12
Ca160 ns160 0 1e-12
Ra159 ns159 0 14.6643586754 noise=0
Ra160 ns160 0 14.6643586754 noise=0
Ga159 ns159 0 ns160 0 -0.39239765994
Ga160 ns160 0 ns159 0 0.39239765994
Ca161 ns161 0 1e-12
Ca162 ns162 0 1e-12
Ra161 ns161 0 18.5528384969 noise=0
Ra162 ns162 0 18.5528384969 noise=0
Ga161 ns161 0 ns162 0 -0.213309922964
Ga162 ns162 0 ns161 0 0.213309922964
Ca163 ns163 0 1e-12
Ca164 ns164 0 1e-12
Ra163 ns163 0 16.425306589 noise=0
Ra164 ns164 0 16.425306589 noise=0
Ga163 ns163 0 ns164 0 -0.132506240506
Ga164 ns164 0 ns163 0 0.132506240506
Ca165 ns165 0 1e-12
Ra165 ns165 0 12.9927381247 noise=0
Ca166 ns166 0 1e-12
Ra166 ns166 0 99.3047026559 noise=0
Ca167 ns167 0 1e-12
Ca168 ns168 0 1e-12
Ra167 ns167 0 116.054358759 noise=0
Ra168 ns168 0 116.054358759 noise=0
Ga167 ns167 0 ns168 0 -0.0790828435996
Ga168 ns168 0 ns167 0 0.0790828435996
Ca169 ns169 0 1e-12
Ca170 ns170 0 1e-12
Ra169 ns169 0 0.177524466588 noise=0
Ra170 ns170 0 0.177524466588 noise=0
Ga169 ns169 0 ns170 0 -0.592192182122
Ga170 ns170 0 ns169 0 0.592192182122
Ca171 ns171 0 1e-12
Ca172 ns172 0 1e-12
Ra171 ns171 0 3.73043526058 noise=0
Ra172 ns172 0 3.73043526058 noise=0
Ga171 ns171 0 ns172 0 -1.88816876812
Ga172 ns172 0 ns171 0 1.88816876812
Ca173 ns173 0 1e-12
Ca174 ns174 0 1e-12
Ra173 ns173 0 78.3630472463 noise=0
Ra174 ns174 0 78.3630472463 noise=0
Ga173 ns173 0 ns174 0 -1.87552614083
Ga174 ns174 0 ns173 0 1.87552614083
Ca175 ns175 0 1e-12
Ca176 ns176 0 1e-12
Ra175 ns175 0 28.6294222129 noise=0
Ra176 ns176 0 28.6294222129 noise=0
Ga175 ns175 0 ns176 0 -1.8615708713
Ga176 ns176 0 ns175 0 1.8615708713
Ca177 ns177 0 1e-12
Ca178 ns178 0 1e-12
Ra177 ns177 0 934.131832031 noise=0
Ra178 ns178 0 934.131832031 noise=0
Ga177 ns177 0 ns178 0 -1.77206208419
Ga178 ns178 0 ns177 0 1.77206208419
Ca179 ns179 0 1e-12
Ca180 ns180 0 1e-12
Ra179 ns179 0 30.3138883767 noise=0
Ra180 ns180 0 30.3138883767 noise=0
Ga179 ns179 0 ns180 0 -1.74835043081
Ga180 ns180 0 ns179 0 1.74835043081
Ca181 ns181 0 1e-12
Ca182 ns182 0 1e-12
Ra181 ns181 0 29.0014618309 noise=0
Ra182 ns182 0 29.0014618309 noise=0
Ga181 ns181 0 ns182 0 -1.68453524434
Ga182 ns182 0 ns181 0 1.68453524434
Ca183 ns183 0 1e-12
Ca184 ns184 0 1e-12
Ra183 ns183 0 608.740499085 noise=0
Ra184 ns184 0 608.740499085 noise=0
Ga183 ns183 0 ns184 0 -1.60136974681
Ga184 ns184 0 ns183 0 1.60136974681
Ca185 ns185 0 1e-12
Ca186 ns186 0 1e-12
Ra185 ns185 0 28.8457454632 noise=0
Ra186 ns186 0 28.8457454632 noise=0
Ga185 ns185 0 ns186 0 -1.57343392648
Ga186 ns186 0 ns185 0 1.57343392648
Ca187 ns187 0 1e-12
Ca188 ns188 0 1e-12
Ra187 ns187 0 27.1849571621 noise=0
Ra188 ns188 0 27.1849571621 noise=0
Ga187 ns187 0 ns188 0 -1.49976985502
Ga188 ns188 0 ns187 0 1.49976985502
Ca189 ns189 0 1e-12
Ca190 ns190 0 1e-12
Ra189 ns189 0 294.868225966 noise=0
Ra190 ns190 0 294.868225966 noise=0
Ga189 ns189 0 ns190 0 -1.43272297288
Ga190 ns190 0 ns189 0 1.43272297288
Ca191 ns191 0 1e-12
Ca192 ns192 0 1e-12
Ra191 ns191 0 24.065722504 noise=0
Ra192 ns192 0 24.065722504 noise=0
Ga191 ns191 0 ns192 0 -1.39531521009
Ga192 ns192 0 ns191 0 1.39531521009
Ca193 ns193 0 1e-12
Ca194 ns194 0 1e-12
Ra193 ns193 0 27.949811121 noise=0
Ra194 ns194 0 27.949811121 noise=0
Ga193 ns193 0 ns194 0 -1.32076031205
Ga194 ns194 0 ns193 0 1.32076031205
Ca195 ns195 0 1e-12
Ca196 ns196 0 1e-12
Ra195 ns195 0 68.9019895791 noise=0
Ra196 ns196 0 68.9019895791 noise=0
Ga195 ns195 0 ns196 0 -1.26735586041
Ga196 ns196 0 ns195 0 1.26735586041
Ca197 ns197 0 1e-12
Ca198 ns198 0 1e-12
Ra197 ns197 0 17.4920890166 noise=0
Ra198 ns198 0 17.4920890166 noise=0
Ga197 ns197 0 ns198 0 -1.21455822137
Ga198 ns198 0 ns197 0 1.21455822137
Ca199 ns199 0 1e-12
Ca200 ns200 0 1e-12
Ra199 ns199 0 23.7303485873 noise=0
Ra200 ns200 0 23.7303485873 noise=0
Ga199 ns199 0 ns200 0 -1.13110590561
Ga200 ns200 0 ns199 0 1.13110590561
Ca201 ns201 0 1e-12
Ca202 ns202 0 1e-12
Ra201 ns201 0 12.6702453574 noise=0
Ra202 ns202 0 12.6702453574 noise=0
Ga201 ns201 0 ns202 0 -1.01544529945
Ga202 ns202 0 ns201 0 1.01544529945
Ca203 ns203 0 1e-12
Ca204 ns204 0 1e-12
Ra203 ns203 0 22.4497679254 noise=0
Ra204 ns204 0 22.4497679254 noise=0
Ga203 ns203 0 ns204 0 -0.947337481808
Ga204 ns204 0 ns203 0 0.947337481808
Ca205 ns205 0 1e-12
Ca206 ns206 0 1e-12
Ra205 ns205 0 19.3969089633 noise=0
Ra206 ns206 0 19.3969089633 noise=0
Ga205 ns205 0 ns206 0 -0.828769989963
Ga206 ns206 0 ns205 0 0.828769989963
Ca207 ns207 0 1e-12
Ca208 ns208 0 1e-12
Ra207 ns207 0 28.1931334636 noise=0
Ra208 ns208 0 28.1931334636 noise=0
Ga207 ns207 0 ns208 0 -0.753040704424
Ga208 ns208 0 ns207 0 0.753040704424
Ca209 ns209 0 1e-12
Ca210 ns210 0 1e-12
Ra209 ns209 0 9.58447239365 noise=0
Ra210 ns210 0 9.58447239365 noise=0
Ga209 ns209 0 ns210 0 -0.706025240203
Ga210 ns210 0 ns209 0 0.706025240203
Ca211 ns211 0 1e-12
Ca212 ns212 0 1e-12
Ra211 ns211 0 19.2217606518 noise=0
Ra212 ns212 0 19.2217606518 noise=0
Ga211 ns211 0 ns212 0 -0.584920288579
Ga212 ns212 0 ns211 0 0.584920288579
Ca213 ns213 0 1e-12
Ca214 ns214 0 1e-12
Ra213 ns213 0 12.9186134131 noise=0
Ra214 ns214 0 12.9186134131 noise=0
Ga213 ns213 0 ns214 0 -0.451995255731
Ga214 ns214 0 ns213 0 0.451995255731
Ca215 ns215 0 1e-12
Ca216 ns216 0 1e-12
Ra215 ns215 0 14.6643586754 noise=0
Ra216 ns216 0 14.6643586754 noise=0
Ga215 ns215 0 ns216 0 -0.39239765994
Ga216 ns216 0 ns215 0 0.39239765994
Ca217 ns217 0 1e-12
Ca218 ns218 0 1e-12
Ra217 ns217 0 18.5528384969 noise=0
Ra218 ns218 0 18.5528384969 noise=0
Ga217 ns217 0 ns218 0 -0.213309922964
Ga218 ns218 0 ns217 0 0.213309922964
Ca219 ns219 0 1e-12
Ca220 ns220 0 1e-12
Ra219 ns219 0 16.425306589 noise=0
Ra220 ns220 0 16.425306589 noise=0
Ga219 ns219 0 ns220 0 -0.132506240506
Ga220 ns220 0 ns219 0 0.132506240506
Ca221 ns221 0 1e-12
Ra221 ns221 0 12.9927381247 noise=0
Ca222 ns222 0 1e-12
Ra222 ns222 0 99.3047026559 noise=0
Ca223 ns223 0 1e-12
Ca224 ns224 0 1e-12
Ra223 ns223 0 116.054358759 noise=0
Ra224 ns224 0 116.054358759 noise=0
Ga223 ns223 0 ns224 0 -0.0790828435996
Ga224 ns224 0 ns223 0 0.0790828435996
Ca225 ns225 0 1e-12
Ca226 ns226 0 1e-12
Ra225 ns225 0 0.177524466588 noise=0
Ra226 ns226 0 0.177524466588 noise=0
Ga225 ns225 0 ns226 0 -0.592192182122
Ga226 ns226 0 ns225 0 0.592192182122
Ca227 ns227 0 1e-12
Ca228 ns228 0 1e-12
Ra227 ns227 0 3.73043526058 noise=0
Ra228 ns228 0 3.73043526058 noise=0
Ga227 ns227 0 ns228 0 -1.88816876812
Ga228 ns228 0 ns227 0 1.88816876812
Ca229 ns229 0 1e-12
Ca230 ns230 0 1e-12
Ra229 ns229 0 78.3630472463 noise=0
Ra230 ns230 0 78.3630472463 noise=0
Ga229 ns229 0 ns230 0 -1.87552614083
Ga230 ns230 0 ns229 0 1.87552614083
Ca231 ns231 0 1e-12
Ca232 ns232 0 1e-12
Ra231 ns231 0 28.6294222129 noise=0
Ra232 ns232 0 28.6294222129 noise=0
Ga231 ns231 0 ns232 0 -1.8615708713
Ga232 ns232 0 ns231 0 1.8615708713
Ca233 ns233 0 1e-12
Ca234 ns234 0 1e-12
Ra233 ns233 0 934.131832031 noise=0
Ra234 ns234 0 934.131832031 noise=0
Ga233 ns233 0 ns234 0 -1.77206208419
Ga234 ns234 0 ns233 0 1.77206208419
Ca235 ns235 0 1e-12
Ca236 ns236 0 1e-12
Ra235 ns235 0 30.3138883767 noise=0
Ra236 ns236 0 30.3138883767 noise=0
Ga235 ns235 0 ns236 0 -1.74835043081
Ga236 ns236 0 ns235 0 1.74835043081
Ca237 ns237 0 1e-12
Ca238 ns238 0 1e-12
Ra237 ns237 0 29.0014618309 noise=0
Ra238 ns238 0 29.0014618309 noise=0
Ga237 ns237 0 ns238 0 -1.68453524434
Ga238 ns238 0 ns237 0 1.68453524434
Ca239 ns239 0 1e-12
Ca240 ns240 0 1e-12
Ra239 ns239 0 608.740499085 noise=0
Ra240 ns240 0 608.740499085 noise=0
Ga239 ns239 0 ns240 0 -1.60136974681
Ga240 ns240 0 ns239 0 1.60136974681
Ca241 ns241 0 1e-12
Ca242 ns242 0 1e-12
Ra241 ns241 0 28.8457454632 noise=0
Ra242 ns242 0 28.8457454632 noise=0
Ga241 ns241 0 ns242 0 -1.57343392648
Ga242 ns242 0 ns241 0 1.57343392648
Ca243 ns243 0 1e-12
Ca244 ns244 0 1e-12
Ra243 ns243 0 27.1849571621 noise=0
Ra244 ns244 0 27.1849571621 noise=0
Ga243 ns243 0 ns244 0 -1.49976985502
Ga244 ns244 0 ns243 0 1.49976985502
Ca245 ns245 0 1e-12
Ca246 ns246 0 1e-12
Ra245 ns245 0 294.868225966 noise=0
Ra246 ns246 0 294.868225966 noise=0
Ga245 ns245 0 ns246 0 -1.43272297288
Ga246 ns246 0 ns245 0 1.43272297288
Ca247 ns247 0 1e-12
Ca248 ns248 0 1e-12
Ra247 ns247 0 24.065722504 noise=0
Ra248 ns248 0 24.065722504 noise=0
Ga247 ns247 0 ns248 0 -1.39531521009
Ga248 ns248 0 ns247 0 1.39531521009
Ca249 ns249 0 1e-12
Ca250 ns250 0 1e-12
Ra249 ns249 0 27.949811121 noise=0
Ra250 ns250 0 27.949811121 noise=0
Ga249 ns249 0 ns250 0 -1.32076031205
Ga250 ns250 0 ns249 0 1.32076031205
Ca251 ns251 0 1e-12
Ca252 ns252 0 1e-12
Ra251 ns251 0 68.9019895791 noise=0
Ra252 ns252 0 68.9019895791 noise=0
Ga251 ns251 0 ns252 0 -1.26735586041
Ga252 ns252 0 ns251 0 1.26735586041
Ca253 ns253 0 1e-12
Ca254 ns254 0 1e-12
Ra253 ns253 0 17.4920890166 noise=0
Ra254 ns254 0 17.4920890166 noise=0
Ga253 ns253 0 ns254 0 -1.21455822137
Ga254 ns254 0 ns253 0 1.21455822137
Ca255 ns255 0 1e-12
Ca256 ns256 0 1e-12
Ra255 ns255 0 23.7303485873 noise=0
Ra256 ns256 0 23.7303485873 noise=0
Ga255 ns255 0 ns256 0 -1.13110590561
Ga256 ns256 0 ns255 0 1.13110590561
Ca257 ns257 0 1e-12
Ca258 ns258 0 1e-12
Ra257 ns257 0 12.6702453574 noise=0
Ra258 ns258 0 12.6702453574 noise=0
Ga257 ns257 0 ns258 0 -1.01544529945
Ga258 ns258 0 ns257 0 1.01544529945
Ca259 ns259 0 1e-12
Ca260 ns260 0 1e-12
Ra259 ns259 0 22.4497679254 noise=0
Ra260 ns260 0 22.4497679254 noise=0
Ga259 ns259 0 ns260 0 -0.947337481808
Ga260 ns260 0 ns259 0 0.947337481808
Ca261 ns261 0 1e-12
Ca262 ns262 0 1e-12
Ra261 ns261 0 19.3969089633 noise=0
Ra262 ns262 0 19.3969089633 noise=0
Ga261 ns261 0 ns262 0 -0.828769989963
Ga262 ns262 0 ns261 0 0.828769989963
Ca263 ns263 0 1e-12
Ca264 ns264 0 1e-12
Ra263 ns263 0 28.1931334636 noise=0
Ra264 ns264 0 28.1931334636 noise=0
Ga263 ns263 0 ns264 0 -0.753040704424
Ga264 ns264 0 ns263 0 0.753040704424
Ca265 ns265 0 1e-12
Ca266 ns266 0 1e-12
Ra265 ns265 0 9.58447239365 noise=0
Ra266 ns266 0 9.58447239365 noise=0
Ga265 ns265 0 ns266 0 -0.706025240203
Ga266 ns266 0 ns265 0 0.706025240203
Ca267 ns267 0 1e-12
Ca268 ns268 0 1e-12
Ra267 ns267 0 19.2217606518 noise=0
Ra268 ns268 0 19.2217606518 noise=0
Ga267 ns267 0 ns268 0 -0.584920288579
Ga268 ns268 0 ns267 0 0.584920288579
Ca269 ns269 0 1e-12
Ca270 ns270 0 1e-12
Ra269 ns269 0 12.9186134131 noise=0
Ra270 ns270 0 12.9186134131 noise=0
Ga269 ns269 0 ns270 0 -0.451995255731
Ga270 ns270 0 ns269 0 0.451995255731
Ca271 ns271 0 1e-12
Ca272 ns272 0 1e-12
Ra271 ns271 0 14.6643586754 noise=0
Ra272 ns272 0 14.6643586754 noise=0
Ga271 ns271 0 ns272 0 -0.39239765994
Ga272 ns272 0 ns271 0 0.39239765994
Ca273 ns273 0 1e-12
Ca274 ns274 0 1e-12
Ra273 ns273 0 18.5528384969 noise=0
Ra274 ns274 0 18.5528384969 noise=0
Ga273 ns273 0 ns274 0 -0.213309922964
Ga274 ns274 0 ns273 0 0.213309922964
Ca275 ns275 0 1e-12
Ca276 ns276 0 1e-12
Ra275 ns275 0 16.425306589 noise=0
Ra276 ns276 0 16.425306589 noise=0
Ga275 ns275 0 ns276 0 -0.132506240506
Ga276 ns276 0 ns275 0 0.132506240506
Ca277 ns277 0 1e-12
Ra277 ns277 0 12.9927381247 noise=0
Ca278 ns278 0 1e-12
Ra278 ns278 0 99.3047026559 noise=0
Ca279 ns279 0 1e-12
Ca280 ns280 0 1e-12
Ra279 ns279 0 116.054358759 noise=0
Ra280 ns280 0 116.054358759 noise=0
Ga279 ns279 0 ns280 0 -0.0790828435996
Ga280 ns280 0 ns279 0 0.0790828435996
Ca281 ns281 0 1e-12
Ca282 ns282 0 1e-12
Ra281 ns281 0 0.177524466588 noise=0
Ra282 ns282 0 0.177524466588 noise=0
Ga281 ns281 0 ns282 0 -0.592192182122
Ga282 ns282 0 ns281 0 0.592192182122
Ca283 ns283 0 1e-12
Ca284 ns284 0 1e-12
Ra283 ns283 0 3.73043526058 noise=0
Ra284 ns284 0 3.73043526058 noise=0
Ga283 ns283 0 ns284 0 -1.88816876812
Ga284 ns284 0 ns283 0 1.88816876812
Ca285 ns285 0 1e-12
Ca286 ns286 0 1e-12
Ra285 ns285 0 78.3630472463 noise=0
Ra286 ns286 0 78.3630472463 noise=0
Ga285 ns285 0 ns286 0 -1.87552614083
Ga286 ns286 0 ns285 0 1.87552614083
Ca287 ns287 0 1e-12
Ca288 ns288 0 1e-12
Ra287 ns287 0 28.6294222129 noise=0
Ra288 ns288 0 28.6294222129 noise=0
Ga287 ns287 0 ns288 0 -1.8615708713
Ga288 ns288 0 ns287 0 1.8615708713
Ca289 ns289 0 1e-12
Ca290 ns290 0 1e-12
Ra289 ns289 0 934.131832031 noise=0
Ra290 ns290 0 934.131832031 noise=0
Ga289 ns289 0 ns290 0 -1.77206208419
Ga290 ns290 0 ns289 0 1.77206208419
Ca291 ns291 0 1e-12
Ca292 ns292 0 1e-12
Ra291 ns291 0 30.3138883767 noise=0
Ra292 ns292 0 30.3138883767 noise=0
Ga291 ns291 0 ns292 0 -1.74835043081
Ga292 ns292 0 ns291 0 1.74835043081
Ca293 ns293 0 1e-12
Ca294 ns294 0 1e-12
Ra293 ns293 0 29.0014618309 noise=0
Ra294 ns294 0 29.0014618309 noise=0
Ga293 ns293 0 ns294 0 -1.68453524434
Ga294 ns294 0 ns293 0 1.68453524434
Ca295 ns295 0 1e-12
Ca296 ns296 0 1e-12
Ra295 ns295 0 608.740499085 noise=0
Ra296 ns296 0 608.740499085 noise=0
Ga295 ns295 0 ns296 0 -1.60136974681
Ga296 ns296 0 ns295 0 1.60136974681
Ca297 ns297 0 1e-12
Ca298 ns298 0 1e-12
Ra297 ns297 0 28.8457454632 noise=0
Ra298 ns298 0 28.8457454632 noise=0
Ga297 ns297 0 ns298 0 -1.57343392648
Ga298 ns298 0 ns297 0 1.57343392648
Ca299 ns299 0 1e-12
Ca300 ns300 0 1e-12
Ra299 ns299 0 27.1849571621 noise=0
Ra300 ns300 0 27.1849571621 noise=0
Ga299 ns299 0 ns300 0 -1.49976985502
Ga300 ns300 0 ns299 0 1.49976985502
Ca301 ns301 0 1e-12
Ca302 ns302 0 1e-12
Ra301 ns301 0 294.868225966 noise=0
Ra302 ns302 0 294.868225966 noise=0
Ga301 ns301 0 ns302 0 -1.43272297288
Ga302 ns302 0 ns301 0 1.43272297288
Ca303 ns303 0 1e-12
Ca304 ns304 0 1e-12
Ra303 ns303 0 24.065722504 noise=0
Ra304 ns304 0 24.065722504 noise=0
Ga303 ns303 0 ns304 0 -1.39531521009
Ga304 ns304 0 ns303 0 1.39531521009
Ca305 ns305 0 1e-12
Ca306 ns306 0 1e-12
Ra305 ns305 0 27.949811121 noise=0
Ra306 ns306 0 27.949811121 noise=0
Ga305 ns305 0 ns306 0 -1.32076031205
Ga306 ns306 0 ns305 0 1.32076031205
Ca307 ns307 0 1e-12
Ca308 ns308 0 1e-12
Ra307 ns307 0 68.9019895791 noise=0
Ra308 ns308 0 68.9019895791 noise=0
Ga307 ns307 0 ns308 0 -1.26735586041
Ga308 ns308 0 ns307 0 1.26735586041
Ca309 ns309 0 1e-12
Ca310 ns310 0 1e-12
Ra309 ns309 0 17.4920890166 noise=0
Ra310 ns310 0 17.4920890166 noise=0
Ga309 ns309 0 ns310 0 -1.21455822137
Ga310 ns310 0 ns309 0 1.21455822137
Ca311 ns311 0 1e-12
Ca312 ns312 0 1e-12
Ra311 ns311 0 23.7303485873 noise=0
Ra312 ns312 0 23.7303485873 noise=0
Ga311 ns311 0 ns312 0 -1.13110590561
Ga312 ns312 0 ns311 0 1.13110590561
Ca313 ns313 0 1e-12
Ca314 ns314 0 1e-12
Ra313 ns313 0 12.6702453574 noise=0
Ra314 ns314 0 12.6702453574 noise=0
Ga313 ns313 0 ns314 0 -1.01544529945
Ga314 ns314 0 ns313 0 1.01544529945
Ca315 ns315 0 1e-12
Ca316 ns316 0 1e-12
Ra315 ns315 0 22.4497679254 noise=0
Ra316 ns316 0 22.4497679254 noise=0
Ga315 ns315 0 ns316 0 -0.947337481808
Ga316 ns316 0 ns315 0 0.947337481808
Ca317 ns317 0 1e-12
Ca318 ns318 0 1e-12