* BEGIN ANSOFT HEADER
* node 1    1:trace_p_0_T1_A
* node 2    1:trace_n_0_T1_A
* node 3    1:trace_n_1_T1_A
* node 4    1:trace_p_1_T1_A
* node 5    Ground_A
* node 6    1:trace_p_0_T1_B
* node 7    1:trace_n_0_T1_B
* node 8    1:trace_n_1_T1_B
* node 9    1:trace_p_1_T1_B
* node 10   Ground_B
*  Project: 4lines_veryHighFreq
*   Design: 2-diff-pairs
*   Length: 5
*   Format: HSPICE
*  Creator: Ansoft HFSS
*     Date: Sat Jun 06 18:38:17 2020
* END ANSOFT HEADER

.subckt ckt_m4lines_veryHighFreq_W 1 2 3 4 inref 5 6 7 8 outref length=2.54M

.model m4lines_veryHighFreq_W_1 W MODELTYPE=table N=4
+ RMODEL=r_m4lines_veryHighFreq_W_1 LMODEL=l_m4lines_veryHighFreq_W_1
+ GMODEL=g_m4lines_veryHighFreq_W_1 CMODEL=c_m4lines_veryHighFreq_W_1

* Example usage:
W1 1 2 3 4 inref 5 6 7 8 outref N=4 L=length TABLEMODEL=m4lines_veryHighFreq_W_1

.model r_m4lines_veryHighFreq_W_1 sp N=4 SPACING=nonuniform VALTYPE=real
+ INTERPOLATION=spline
+ DATA = 600
+ 0           
+        6.261736242051261
+       0.6684715379461887
+        6.377864916833254
+       0.2826728878941096
+       0.8559903459373164
+        6.374345933058062
+       0.1201295641379421
+       0.2811319884149726
+       0.6661056209785412
+         6.27437506597599
+ 6e+08       
+        17.16602021463065
+        1.581718391472655
+        17.51036311303858
+       0.6614412203087239
+        2.254836236598286
+         17.4912630450617
+       0.2420325169879826
+        0.656980418127239
+        1.581752083724183
+        17.22949207405247
+ 1.1e+09     
+        23.59351460335346
+        1.970831241751713
+         24.1048480387836
+       0.8006082533660617
+        3.026161731564372
+        24.07819871982417
+       0.2088873961887264
+       0.7955773917357565
+        1.973891104446969
+        23.69328765132619
+ 1.6e+09     
+         29.3175635182098
+        2.330345152429206
+        30.04640119176534
+       0.7945607007167228
+        3.614970840830058
+        30.01294884621569
+      -0.1444487808025694
+       0.7930774588734827
+        2.334779943959239
+         29.4570691053138
+ 2.1e+09     
+        34.38590372235392
+        2.867247744533854
+        35.18649325133151
+       0.9004364561810362
+        4.084624582322306
+        35.15336384534071
+      -0.3546848150431027
+       0.8993795543263321
+        2.871994828126375
+        34.54833362784322
+ 2.6e+09     
+         38.5423097625984
+        3.251967345894116
+        39.33381652721985
+          1.0246614425912
+        4.381617080110924
+        39.30567974687667
+      -0.4069411399700977
+        1.021628527039997
+        3.256197181878748
+        38.71549024004252
+ 3.1e+09     
+        41.98329072612757
+        3.496943600316263
+        42.75196559479232
+        1.167668088314755
+        4.623337350489276
+        42.73123299909383
+      -0.3051732854717014
+          1.1611095431772
+        3.500334573822903
+        42.16051774632864
+ 3.6e+09     
+        44.98480461622582
+        3.705083061670372
+        45.75991763249516
+        1.357871665938491
+        4.970202610793359
+        45.74773837577082
+     -0.06902803846415684
+        1.346839684456547
+        3.707723854678363
+        45.16297178006421
+ 4.1e+09     
+        47.77060417996347
+        3.970678248928344
+        48.60319766503232
+        1.622968582583021
+        5.555703602264881
+        48.60014948317339
+       0.2729093325795016
+        1.606945869805822
+         3.97290837802092
+         47.9486190052937
+ 4.6e+09     
+        50.48805316123251
+        4.347922586067769
+        51.42821882890364
+        1.972006533392416
+        6.410117421277009
+        51.43463906274915
+       0.6864648008413685
+        1.950817321075046
+        4.350158459043644
+        50.66585302493288
+ 5.1e+09     
+        53.21761305360312
+        4.844094100232534
+        54.28757388820721
+         2.38405084195086
+        7.401184135373949
+        54.30366893524681
+        1.133107514525441
+        2.357819184881632
+        4.846623526176458
+        53.39556241423573
+ 5.6e+09     
+        55.98953585659228
+        5.426262984315174
+         57.1704947232607
+         2.81879786545518
+        8.305981399047335
+        57.19633413554457
+        1.573481978323348
+        2.787934431801826
+         5.42900240150755
+        56.16802989539996
+ 6.1e+09     
+        58.80014737472479
+        6.037086363955919
+        60.05083024360616
+        3.246770311825928
+        9.003489498970186
+        60.08629777308323
+        1.974063246222053
+        3.211979891053165
+        6.039352298894379
+        58.97934545680759
+ 6.6e+09     
+        61.62513424930499
+        6.610723592592122
+        62.91223222025369
+        3.661737390807022
+        9.549503096523232
+         62.9570080518913
+        2.311753600704219
+        3.624036255328011
+        6.611170979304896
+        61.80482282238584
+ 7.1e+09     
+        64.43105227460738
+         7.08971862949311
+        65.74197940329421
+        4.066440350057811
+        10.07068536310605
+        65.79564245178429
+        2.575697142606129
+        4.027160466984707
+        7.086691479540798
+        64.61068587942748
+ 7.6e+09     
+        67.18805748996546
+        7.452027265532099
+        68.52585611428609
+         4.46152081681047
+        10.65866198686495
+        68.58815679728761
+        2.771720542477905
+        4.422239521330206
+        7.444458381772193
+        67.36700211332473
+ 8.1e+09     
+        69.88294395838609
+        7.743816671447835
+        71.25658467517061
+         4.85167755667857
+        11.34689455225178
+        71.32777475270993
+        2.932002846082346
+        4.813917344987765
+        7.732269519070353
+        70.06078327861394
+ 8.6e+09     
+        72.52639027340503
+        8.095806706621955
+        73.94343083153043
+        5.263061523029681
+         12.1306976368427
+        74.02432254353928
+        3.129043772044632
+        5.227489187487424
+        8.082534058857787
+        72.70293492292826
+ 9.1e+09     
+        75.14809742255692
+         8.70076393759506
+        76.61051427987179
+        5.765637728069409
+        12.99140484641196
+        76.70199898037887
+        3.493177375720148
+        5.730512646355473
+         8.68785939020713
+        75.32280026808829
+ 9.6e+09     
+        77.78131902974312
+        9.756234062009833
+        79.28354254967662
+        6.498100801299851
+        13.91400026527981
+        79.38579007492103
+        4.234635369891269
+        6.457125057469984
+        9.742646776459974
+        77.95233103592048
+ 1.01e+10    
+         78.5367572374255
+         10.1018393723646
+        79.94979593039989
+        6.762142142986897
+        14.06906916462574
+        80.06266861342931
+         5.01288153779625
+        6.702002593205487
+        10.08449902887477
+        78.71962788984995
+ 1.06e+10    
+        71.81949044042904
+        5.505293058615679
+        72.65479941492411
+        3.507209198105161
+        10.91875361723849
+        72.78218172472999
+        3.512991682848697
+         3.41757387810189
+        5.492791905845868
+        72.08953591804642
+ 1.11e+10    
+        65.38391369498106
+       0.9617392035804087
+        65.61053493448925
+       0.1465266363375564
+        7.752965235456211
+        65.75383596216955
+        1.980119387781448
+      0.02680638723292628
+        0.954214455404033
+        65.74015922640436
+ 1.16e+10    
+        59.25737891439243
+       -3.509041623975814
+        58.84866085775177
+       -3.318984337710113
+        4.581619789486691
+        59.00915110883384
+       0.4163307616431164
+       -3.469197113772524
+       -3.511592150188038
+        59.69745533151519
+ 1.21e+10    
+        53.46291040672862
+       -7.888823432959039
+        52.39632872449253
+       -6.889398467024413
+        1.413800902902104
+        52.57512818223208
+       -1.176738476020045
+       -7.070285949378788
+       -7.886517723226063
+        53.98328912257312
+ 1.26e+10    
+        48.01947716179243
+       -12.16095073162888
+        46.27639963621113
+       -10.56587184545323
+       -1.742268695854571
+        46.47446956313158
+       -2.797915963998386
+       -10.77734077351139
+       -12.15399864007415
+        48.61569893068838
+ 1.31e+10    
+        42.94227590004397
+       -16.31034135757736
+        40.50769212954282
+        -14.3507344734171
+       -4.879253067940114
+        40.72583011385909
+       -4.446527020053935
+       -14.59235896096365
+       -16.29902104367387
+        43.60916622546332
+ 1.36e+10    
+        38.24301722075879
+       -20.32347870831839
+        35.10524971706981
+       -18.24759190036323
+       -7.990727924378829
+        35.34408742182177
+       -6.122430850862138
+        -18.5185477579784
+       -20.30811387271571
+        38.97488388037247
+ 1.41e+10    
+        33.93020871797519
+       -24.18839565481673
+        30.08061807990692
+       -22.26143805407679
+       -11.07120613657965
+        30.34062112233308
+       -7.826059245702012
+       -22.56042692997534
+       -24.16933376169507
+         34.7210189624861
+ 1.46e+10    
+        30.00943023795504
+       -27.89465222334274
+         25.4421236271043
+        -26.3987815693316
+       -14.11616546312354
+        25.72359301169021
+       -9.558458421810386
+       -26.72394280797108
+       -27.87224370239683
+        30.85296682957462
+ 1.51e+10    
+        26.48359755355848
+       -31.43330895171591
+        21.19514675107559
+       -30.66778819147441
+       -17.12207996665412
+        21.49822128085859
+       -11.32133477858518
+       -31.01659583391355
+       -31.40788721659884
+         27.3735940035353
+ 1.56e+10    
+        23.35321165103215
+       -34.79689766700012
+        17.34238455455478
+       -35.07844215002326
+       -20.08645653249753
+        17.66704365866432
+       -13.11710542263931
+       -35.44758393968327
+       -34.76875965969967
+        24.28346786400936
+ 1.61e+10    
+         20.6165915823477
+       -37.97939129813589
+         13.8840990821818
+       -39.64272977649115
+        -23.0078778756915
+        14.23016550790252
+       -14.94895444673573
+       -40.02796436550337
+       -37.94877816189206
+        21.58107168932681
+ 1.66e+10    
+        18.27008945043439
+       -40.97617422590491
+        10.81834815724948
+       -44.37484908118812
+       -25.88605343269214
+        11.18548998377568
+       -16.82089608124497
+       -44.77083682760171
+       -40.94325161504125
+        19.26300397644497
+ 1.71e+10    
+        16.30828658183936
+       -43.78401458706494
+        8.141196801806007
+       -49.29144950317026
+       -28.72187957820556
+        8.528928231079144
+       -18.73784598614716
+       -49.69155127523109
+       -43.74885203219624
+        17.32416130611014
+ 1.76e+10    
+        14.72417031762041
+       -46.40103988544394
+        5.846907922660563
+       -54.41190659862431
+       -31.51751068243735
+        6.254588291988163
+        -20.7057021112586
+       -54.80794382075852
+       -46.36358853884498
+        15.75790429197638
+ 1.81e+10    
+        13.50929113416481
+       -48.82671721884049
+        3.928111492302825
+       -59.75863701799094
+       -34.27644262080035
+        4.354941923996169
+        -22.7314367168035
+       -60.14060475972367
+        -48.7867852017672
+        14.55620636887001
+ 1.86e+10    
+        12.65390000647179
+       -51.06183940066629
+        2.375951869626427
+       -65.35745970674047
+       -37.00361045267564
+         2.82096892675851
+       -24.82320130298844
+       -65.71318288151178
+       -51.01906385332371
+        13.70978534543744
+ 1.91e+10    
+        12.14706606378187
+       -53.10851823150642
+        1.180213208665389
+       -71.23800979217634
+       -39.70550208038816
+        1.642278854973449
+       -26.99044632912469
+       -71.55273044398595
+       -53.06233302279882
+        13.20821777823085
+ 1.96e+10    
+        11.97677467959231
+       -54.97018614508582
+       0.3294231304594604
+       -77.43421198808169
+       -42.39028974638381
+       0.8072102002781829
+       -29.24405767812057
+       -77.69009314816789
+       -54.91978402560365
+        13.04003633255399
+ 2.01e+10    
+        12.13000620724028
+       -56.65160739561268
+          185.87993952924
+       -83.98482040341682
+       -45.06798117922371
+       0.3029072699044058
+       -31.59651179176196
+       -84.16034905048434
+       -56.59589517023863
+        13.19281039540314
+ 2.06e+10    
+        12.59279564734924
+       -58.15889983686294
+        196.9127933108171
+        -90.9340311229347
+       -47.75059197335608
+       0.1153751363756852
+       -34.06205119044962
+       -91.00329935857148
+       -58.09644488835549
+        13.65321032361838
+ 2.11e+10    
+        13.35027365393199
+       -59.49956811999868
+        208.2159229139332
+       -98.33217243605701
+       -50.45234026649615
+       0.2295132149699635
+       -36.65688157560007
+       -98.26401211931029
+       -59.42853433410501
+         14.4070558772221
+ 2.16e+10    
+        14.38668950862774
+       -60.68254873010074
+       0.1063527756321134
+       -106.2364745017162
+       -53.18986376886519
+       0.6291283336998372
+       -39.39939071318152
+       -105.9934163968788
+       -60.60061956322792
+        15.43934965396196
+ 2.21e+10    
+        15.68541710114248
+       -61.71826657704358
+       0.7688569366335898
+       -114.7119145855321
+       -55.98245742465422
+        1.296928684561782
+       -42.31038752850671
+       -114.2489388630658
+       -61.62255268987195
+        16.73429677534487
+ 2.26e+10    
+        17.22894567220824
+       -62.61870167772429
+        1.684288707853142
+       -123.8321243242683
+        -58.8523270112675
+        2.214500950523559
+       -45.41335688508578
+        -123.095165612563
+       -62.50563027529923
+        18.27531277874338
+ 2.31e+10    
+        18.99885829042925
+       -63.39746254905233
+        2.833593206634184
+        -133.680329528023
+       -61.82484917453571
+        3.362274407444884
+       -48.73472073560391
+       -132.6044977513195
+       -63.26264539909502
+        20.04502279509501
+ 2.36e+10    
+        20.97580302327205
+       -64.06985987659731
+        4.196613893973842
+       -144.3502674820158
+       -64.92882080073635
+        4.719478241094778
+       -52.30408878037522
+       -142.8577473860929
+       -63.90793706571735
+        22.02525685260689
+ 2.41e+10    
+        23.13946493717864
+       -64.65296924561035
+        5.752071607188915
+       -155.9469866033111
+       -68.19666885261876
+        6.264102191505442
+       -56.15447006444622
+       -153.9445874773111
+       -64.45742631878397
+        24.19704885722707
+ 2.46e+10    
+        25.46855202411049
+       -65.16566436171716
+        7.477563787582236
+       -168.5873714269808
+       -71.66457384112081
+        7.972876644811352
+       -60.32239910057044
+       -165.9637195555402
+       -64.92862197960699
+        26.54065090311035
+ 2.51e+10    
+        27.94081575923705
+       -65.62859103558517
+        9.349607283180028
+       -182.4001419808362
+       -75.37243315489327
+        9.821297454758334
+       -64.84790332460844
+       -179.0225506220032
+       -65.34056932552396
+        29.03558067288922
+ 2.56e+10    
+        30.53313843522079
+       -66.06403558793242
+         11.3437601465594
+       -197.5249365818548
+       -79.36355071565731
+        11.78373447452864
+       -69.77419918898956
+       -193.2360655733095
+       -65.71370098661643
+        31.66072861377392
+ 2.61e+10    
+        33.22173624124717
+       -66.49561709333427
+        13.43487519946153
+       -214.1098827581652
+       -83.68388202574494
+          13.833682809897
+       -75.14694716145763
+       -208.7244330966001
+       -66.06952923814157
+        34.39456433887923
+ 2.66e+10    
+        35.98255109600588
+       -66.94769850329179
+        15.59756243643701
+       -232.3067712415108
+        -88.3805831115414
+        15.94424427102128
+        -81.0128158414455
+        -225.608679308238
+       -66.43009088716977
+        37.21549943008087
+ 2.71e+10    
+        38.79193724281018
+       -67.44436486072171
+        17.80697000063984
+        -252.262553684319
+       -93.49950335795612
+        18.08896534291166
+       -87.41699757048015
+       -244.0034956503695
+       -66.81701857703598
+        40.10248744058362
+ 2.76e+10    
+        41.62779118882161
+       -68.00775692028502
+        20.04003465211813
+       -274.1053819213051
+       -99.08112522602821
+        20.24320779449999
+       -94.39918173829631
+       -264.0059188536443
+       -67.25006552616838
+        43.03597140353295
+ 2.81e+10    
+        44.47132287442338
+       -68.65547992726255
+        22.27739906388323
+         -297.92283522044
+       -105.1542996458405
+        22.38628528561083
+       -101.9873386770571
+         -285.67826434126
+       -67.74485846305774
+        45.99932204352336
+ 2.86e+10    
+        47.30971110538661
+       -69.39674594610408
+        24.50623401494132
+       -323.7294823595217
+       -111.7269921564521
+        24.50465111998523
+       -110.1885339872649
+        -309.023406722577
+       -68.30960854221917
+        48.98093826527509
+ 2.91e+10    
+        50.13990039681069
+       -70.22689236364822
+        26.72421305262328
+       -351.4208339951635
+       -118.7732300710319
+        26.59643729342522
+       -118.9759681957253
+       -333.9504950476411
+        -68.9405016846211
+        51.97718728617306
+ 2.96e+10    
+        52.97372530919011
+       -71.12002545064497
+        28.94481565942256
+       -380.7117240465035
+       -126.2156980603494
+        28.67756058362178
+       -128.2716916323732
+       -360.2298665999078
+       -69.61557481014657
+        54.99631024177638
+ 3.01e+10    
+        55.84430026262169
+       -72.01989458284467
+        31.20389968779707
+       -411.0603288198454
+       -133.9042554243689
+        30.78932207532312
+       -137.9252643427145
+       -387.4379262714848
+       -70.28715631912389
+         58.0632530885255
+ 3.06e+10    
+        58.81306372942813
+       -72.82988165283207
+         33.5669741961758
+       -441.5858564956307
+       -141.5924231086429
+        33.00679010660835
+        -147.690393554419
+       -414.8969292567256
+       -70.87353219086062
+        61.22502592770329
+ 3.11e+10    
+        61.97591467643704
+       -73.40432895474066
+        36.13572687524996
+       -470.9995317617035
+       -148.9169161851054
+        35.44615677857605
+       -157.2045890580376
+       -441.6216257044658
+       -71.25149661427969
+        64.55558113168537
+ 3.16e+10    
+        65.46559980956685
+       -73.54522070745188
+        39.05116511899939
+       -497.5837454424791
+       -155.3893517697427
+        38.26777466668908
+       -165.9809057139863
+       -466.2941980292601
+       -71.25280137983403
+        68.15835901896884
+ 3.21e+10    
+        69.44640504101575
+       -73.00977742394932
+         42.4896202217156
+       -519.2667360944904
+       -160.4128295903652
+         41.6702762315992
+       -173.4243892123099
+       -487.2977998703316
+       -70.66877707081464
+        72.16384023124213
+ 3.26e+10    
+        74.09739217371224
+       -71.53426646736645
+        46.64777814766654
+       -533.8361801757992
+       -163.3357825407194
+        45.87131794268421
+       -178.8855483324719
+       -502.8402201443049
+       -69.26750789962554
+        76.71928974739379
+ 3.31e+10    
+        79.58329468029396
+       -68.87534100339182
+         51.7151032689342
+       -539.2981340782165
+       -163.5470030222919
+        51.07367765173038
+       -181.7547463995672
+       -511.1829130114555
+       -66.82547225953677
+        81.96925828020672
+ 3.36e+10    
+        86.01808269495901
+       -64.86199481481626
+        57.83710343452189
+       -534.3152614513253
+        -160.597609712788
+        57.42214237607202
+       -181.5833840252964
+       -510.9512668390543
+       -63.16981886196795
+        88.02883432818507
+ 3.41e+10    
+        93.43268644753371
+       -59.44208357096726
+        65.07924468693105
+        -518.581783920844
+       -154.3145941307888
+        64.96423238991241
+       -178.1967520842151
+       -501.4497622729743
+       -58.22017932232271
+        94.95622236018606
+ 3.46e+10    
+        101.7604275522317
+       -52.70422760261748
+        73.40482987216058
+       -492.9732853843835
+       -144.8614469882316
+        73.63068279193152
+       -171.7543401084627
+        -482.871502958403
+       -52.01475567386238
+        102.7342365792634
+ 3.51e+10    
+        110.8477555455697
+       -44.86390913508254
+        82.67681846955681
+       -459.3880433137018
+       -132.7166752083277
+        83.24538425883514
+       -162.7285809638132
+       -456.3100669316855
+         -44.708977470522
+        111.2687197608402
+ 3.56e+10    
+        120.4864429983883
+       -36.21850705503802
+        92.68384364397713
+       -420.3374179755984
+       -118.5760140970217
+        93.56150801499149
+       -151.8077720591369
+       -423.5568775529107
+       -36.54600792191101
+         120.405394313818
+ 3.61e+10    
+        130.4541694690646
+       -27.08930282435965
+         103.180434541439
+       -378.4502061542368
+        -103.216579098659
+        104.3093349938901
+       -139.7611498541884
+       -386.7575632841152
+       -27.81028248204926
+        129.9588874450629
+ 3.66e+10    
+        140.5493159401227
+        -17.7706757517936
+        113.9271815001681
+       -336.0615250770351
+       -87.37048330120706
+        115.2390209253915
+        -127.313331924996
+       -348.0489163267643
+       -18.78053637085679
+        139.7435609850303
+ 3.71e+10    
+        150.6118038291974
+       -8.498689992461252
+        124.7198438779208
+       -294.9783446519555
+       -71.64028693789184
+        126.1477754072693
+       -115.0602933185628
+       -309.2807587082574
+       -9.695325555828425
+        149.5972612609946
+ 3.76e+10    
+        160.5294226595003
+       0.5594578690733361
+        135.4034561445048
+       -256.4209013098197
+       -56.46418329002626
+         136.889747454372
+       -103.4347460588193
+       -271.8688626794379
+      -0.7359624655790924
+        159.3940428859228
+ 3.81e+10    
+        170.2338486795326
+        9.300714885851008
+        145.8735402507723
+       -221.0844088796938
+       -42.12053475249935
+        147.3729312249228
+       -92.71061586457867
+       -236.7683031358195
+        7.975351395652076
+        169.0467217294921
+ 3.86e+10    
+        179.6916018631826
+        17.67360055136008
+        156.0692810560163
+       -189.2562534568121
+       -28.75477389369038
+        157.5491692913999
+       -83.02974786180512
+       -204.5266138299567
+        16.36778178233607
+        178.5026498135253
+ 3.91e+10    
+        188.8939753592287
+        25.66370926470869
+        165.9633968544713
+       -160.9407739400379
+       -16.41379404160846
+        167.4022358897396
+       -74.43606366235028
+       -175.3732072159298
+         24.4100663314555
+        187.7363632958379
+ 3.96e+10    
+        197.8481856269559
+        33.28071520949081
+         175.551956293874
+       -135.9661154284084
+       -5.078425616624946
+        176.9369677733108
+       -66.90782528207924
+          -149.3132753597
+        32.09854216491453
+        196.7417800617808
+ 4.01e+10    
+        206.5705694826955
+        40.54823454108766
+        184.8457962530522
+       -114.0647047783223
+        5.310281426545818
+        186.1706760240385
+       -60.38375127146068
+       -126.2089254834884
+        39.44699950162135
+        205.5254112232711
+ 4.06e+10    
+        215.0818238075878
+        47.49664203514389
+        193.8640453441339
+       -94.92846772520524
+        14.83185811743046
+        195.1269916903329
+       -54.78209921540664
+       -105.8414694777888
+        46.47899580309978
+        214.1011157979951
+ 4.11e+10    
+        223.4039255205682
+        54.15836786025451
+        202.6296239417126
+       -78.24377346525232
+        23.57347719745532
+        203.8317893093809
+       -50.01353013050938
+       -87.95528118426535
+        53.22250078273974
+        222.4863805404419
+ 4.16e+10    
+          231.55829059345
+        60.56505039319814
+        211.1663364468265
+       -63.71171361376924
+        31.62186730855424
+        212.3106844463219
+       -45.98915118254769
+       -72.28646172580571
+        59.70642878884224
+        230.6998654460283
+ 4.21e+10    
+        239.5647806681284
+        66.74597432034707
+        219.4971320616883
+       -51.05852424907368
+         39.0586847384247
+        220.5876325320607
+       -42.62512289095018
+       -58.58018394572455
+        65.95856103527943
+        238.7598981493528
+ 4.26e+10    
+        247.4412555957391
+        72.72734592119173
+        227.6431675453125
+       -40.03977671014614
+        45.95819585301353
+         228.684252263712
+        -39.8449699279258
+       -46.60017743905095
+        72.00442409410171
+        246.6836312706699
+ 4.31e+10    
+         255.203457966925
+        78.53208341904008
+        235.6233905733483
+       -30.44086364475461
+        52.38641918549965
+        236.6195997600273
+       -37.58044090461701
+       -36.13306268837218
+        77.86679036520837
+        254.4866374833242
+ 4.36e+10    
+        262.8650864355627
+        84.17990436286014
+        243.4544430953075
+       -22.07544448038099
+         58.4011363142724
+        244.4102063903833
+       -35.77150417544582
+       -26.98949023080851
+        83.56556151227359
+        262.1827787010623
+ 4.41e+10    
+        270.4379662911921
+        89.68756923639609
+        251.1507490227291
+       -14.78289668898685
+        64.05238121722765
+         252.070258382656
+       -34.36586749219578
+       -19.00342022631781
+        89.11787289789672
+        269.7842370203302
+ 4.46e+10    
+        277.9322612022393
+        95.06919416405212
+        258.7246983530916
+        -8.42540164418552
+        69.38316107375256
+        259.6118420598079
+       -33.31826700397234
+       -12.03041426887491
+        94.53831392047647
+         277.301633563474
+ 4.51e+10    
+        285.3566933650882
+        100.3365812183812
+        266.1868730358521
+       -2.885023372620313
+        74.43025876282502
+         267.045209179959
+       -32.58967445357111
+       -5.945485761108399
+        99.83919876707952
+        284.7441885661156
+ 4.56e+10    
+        292.7187540926049
+        105.4995376581192
+        273.5462820314597
+        1.939030641585361
+        79.22503086815193
+        274.3790366320143
+       -32.14650826630707
+      -0.6408363257178245
+        105.0308485690777
+        292.1198944416613
+ 4.61e+10    
+        300.0248959689421
+        110.5661695752097
+        280.8105873090179
+        6.132879653902549
+        83.79415518606196
+        281.6206670919258
+       -31.95989429747466
+        3.976336391472912
+        110.1218630441807
+        299.4356855691296
+ 4.66e+10    
+        307.2807030974399
+        115.5431439117948
+        287.9863114702306
+        9.770143324201371
+        88.16030633317318
+        288.7763247351283
+       -32.00499754711021
+        7.985863626454465
+        115.1193704309383
+        306.6975961720354
+ 4.71e+10    
+        314.4910390329316
+        120.4359176828433
+        295.0790231138312
+        12.91382407993013
+        92.34275256901228
+        295.8513044451718
+       -32.26043172842906
+         11.4564217138021
+        120.0292510161733
+        313.9109023367683
+ 4.76e+10    
+         321.660173619336
+        125.2489358747909
+        302.0934992043061
+        15.61792001296201
+        96.35787508776495
+         302.850135365008
+       -32.70774547825012
+        14.44713013782946
+         124.856333344981
+        321.0802469981805
+ 4.81e+10    
+         328.791890722249
+        129.9858007748436
+        309.0338654442031
+        17.92879723318886
+        100.2196152598605
+        309.7767208337378
+       -33.33097979422214
+        17.00893961637078
+        129.6045642806013
+        328.2097482843844
+ 4.86e+10    
+        335.8895791126185
+        134.6494159726682
+        315.9037165062475
+        19.88635229056055
+        103.9398571696489
+         316.634457260076
+       -34.11628942856946
+        19.18582732233951
+        134.2771551182249
+        335.3030924294728
+ 4.91e+10    
+        342.9563087489482
+         139.242108319937
+        322.7062183251961
+        21.52499408491943
+        107.5287533150284
+        323.4263345747871
+       -35.05162045047321
+        21.01582001222524
+        138.8767063677349
+        342.3636128219029
+ 4.96e+10    
+        349.9948945531249
+        143.7657309417017
+        329.4441946906968
+        22.87447208817376
+        110.9950010903675
+        330.1550207847834
+       -36.12643642211436
+        22.53186647775511
+        143.4053138749204
+        349.3943568545293
+ 5.01e+10    
+        357.0079495576849
+         148.221750089914
+        336.1202002671346
+        23.96057457454196
+        114.3460770753827
+        336.8229329298618
+       -37.33148623976029
+        23.76257974184323
+        147.8646588146322
+        356.3981421895592
+ 5.06e+10    
+        363.9979290693735
+        152.6113182965957
+        342.7365819736018
+        24.80571736995094
+        117.5884353777892
+        343.4322964762207
+       -38.65860744709943
+        24.73286762725817
+        152.2560838588709